ac_opf/testcases/nesta_case300_ieee__api.m
%%%%%%%%%%%%%%%%%%%%%%%%%%%%%%%%%%%%%%%%%%%%%%%%%%%%%%%%%%%%%%%%%%%%%%%%%%%
%%%%                                                                  %%%%%
%%%%      NICTA Energy System Test Case Archive (NESTA) - v0.7.0      %%%%%
%%%%            Optimal Power Flow - Active Power Increase            %%%%%
%%%%                         05 - June - 2017                         %%%%%
%%%%                                                                  %%%%%
%%%%%%%%%%%%%%%%%%%%%%%%%%%%%%%%%%%%%%%%%%%%%%%%%%%%%%%%%%%%%%%%%%%%%%%%%%%
function mpc = nesta_case300_ieee__api
mpc.version = '2';
mpc.baseMVA = 100.0;

%% bus data
%	bus_i	type	Pd	Qd	Gs	Bs	area	Vm	Va	baseKV	zone	Vmax	Vmin
mpc.bus = [
	1	 1	 101.77	 49.00	 0.0	 0.0	 1	    1.04616	   -8.54966	 115.0	 1	    1.06000	    0.94000;
	2	 1	 63.32	 15.00	 0.0	 0.0	 1	    1.05589	   -6.14695	 115.0	 1	    1.06000	    0.94000;
	3	 1	 20.00	 0.00	 0.0	 0.0	 1	    1.02257	   -9.30541	 230.0	 1	    1.06000	    0.94000;
	4	 1	 0.00	 0.00	 0.0	 0.0	 1	    1.05129	   -8.37625	 345.0	 1	    1.06000	    0.94000;
	5	 1	 399.15	 130.00	 0.0	 0.0	 1	    1.03837	  -10.52699	 115.0	 1	    1.06000	    0.94000;
	6	 1	 135.69	 41.00	 0.0	 0.0	 1	    1.05162	   -7.49417	 115.0	 1	    1.06000	    0.94000;
	7	 1	 0.00	 0.00	 0.0	 0.0	 1	    1.01960	  -10.61233	 230.0	 1	    1.06000	    0.94000;
	8	 2	 71.24	 14.00	 0.0	 0.0	 1	    1.06000	  -10.03742	 115.0	 1	    1.06000	    0.94000;
	9	 1	 108.55	 43.00	 0.0	 0.0	 1	    1.03035	  -14.05039	 115.0	 1	    1.06000	    0.94000;
	10	 2	 173.00	 33.00	 0.0	 0.0	 1	    1.05071	  -17.74763	 230.0	 1	    1.06000	    0.94000;
	11	 1	 93.85	 21.00	 0.0	 0.0	 1	    1.04151	  -15.89216	 115.0	 1	    1.06000	    0.94000;
	12	 1	 0.00	 0.00	 0.0	 0.0	 1	    1.02316	  -13.99048	 230.0	 1	    1.06000	    0.94000;
	13	 1	 65.58	 10.00	 0.0	 0.0	 1	    1.04332	  -20.11818	 115.0	 1	    1.06000	    0.94000;
	14	 1	 180.92	 60.00	 0.0	 0.0	 1	    1.00645	   -9.13629	 115.0	 1	    1.06000	    0.94000;
	15	 1	 143.26	 23.00	 0.0	 0.0	 1	    1.00321	   -4.19847	 115.0	 1	    1.06000	    0.94000;
	16	 1	 0.00	 0.00	 0.0	 0.0	 1	    1.04263	   -4.70555	 345.0	 1	    1.06000	    0.94000;
	17	 1	 634.34	 220.00	 0.0	 0.0	 1	    1.06000	    5.93949	 115.0	 1	    1.06000	    0.94000;
	19	 1	 0.00	 0.00	 0.0	 0.0	 1	    1.01952	  -16.71828	 230.0	 1	    1.06000	    0.94000;
	20	 2	 684.09	 120.00	 0.0	 0.0	 1	    1.06000	  -23.06981	 115.0	 1	    1.06000	    0.94000;
	21	 1	 87.07	 1.00	 0.0	 0.0	 1	    1.01354	  -18.39653	 230.0	 1	    1.06000	    0.94000;
	22	 1	 91.59	 23.00	 0.0	 0.0	 1	    1.04435	  -24.06416	 115.0	 1	    1.06000	    0.94000;
	23	 1	 23.75	 7.00	 0.0	 0.0	 1	    1.06000	  -22.68608	 115.0	 1	    1.06000	    0.94000;
	24	 1	 0.00	 0.00	 0.0	 0.0	 1	    1.03366	  -17.64790	 230.0	 1	    1.06000	    0.94000;
	25	 1	 50.88	 12.00	 0.0	 0.0	 1	    1.03815	  -24.84714	 115.0	 1	    1.06000	    0.94000;
	26	 1	 31.66	 9.00	 0.0	 0.0	 1	    1.02303	  -27.15033	 115.0	 1	    1.06000	    0.94000;
	27	 1	 78.02	 13.00	 0.0	 0.0	 1	    1.01113	  -28.55778	 115.0	 1	    1.06000	    0.94000;
	33	 1	 62.19	 6.00	 0.0	 0.0	 1	    1.04076	   -7.04751	 115.0	 1	    1.06000	    0.94000;
	34	 1	 0.00	 0.00	 0.0	 0.0	 1	    1.04767	   -1.45816	 345.0	 1	    1.06000	    0.94000;
	35	 1	 0.00	 0.00	 0.0	 0.0	 1	    1.01079	  -11.91625	 115.0	 1	    1.06000	    0.94000;
	36	 1	 0.00	 0.00	 0.0	 0.0	 1	    0.99793	   -4.52678	 230.0	 1	    1.06000	    0.94000;
	37	 1	 96.11	 32.00	 0.0	 0.0	 1	    1.03830	   -7.32952	 115.0	 1	    1.06000	    0.94000;
	38	 1	 175.26	 18.00	 0.0	 0.0	 1	    1.03696	   -7.69398	 115.0	 1	    1.06000	    0.94000;
	39	 1	 0.00	 0.00	 0.0	 0.0	 1	    1.05775	    2.05295	 345.0	 1	    1.06000	    0.94000;
	40	 1	 46.00	 -21.00	 0.0	 0.0	 1	    1.04006	   -8.13595	 115.0	 1	    1.06000	    0.94000;
	41	 1	 86.00	 0.00	 0.0	 0.0	 1	    1.04573	   -5.55081	 115.0	 1	    1.06000	    0.94000;
	42	 1	 0.00	 0.00	 0.0	 0.0	 1	    1.05069	   -0.76528	 345.0	 1	    1.06000	    0.94000;
	43	 1	 44.10	 9.00	 0.0	 0.0	 1	    1.02491	  -10.21801	 115.0	 1	    1.06000	    0.94000;
	44	 1	 220.49	 29.00	 0.0	 0.0	 1	    1.03500	   -8.53159	 115.0	 1	    1.06000	    0.94000;
	45	 1	 0.00	 0.00	 0.0	 0.0	 1	    1.04012	   -4.86364	 230.0	 1	    1.06000	    0.94000;
	46	 1	 0.00	 0.00	 0.0	 0.0	 1	    1.03890	   -0.87008	 345.0	 1	    1.06000	    0.94000;
	47	 1	 65.58	 11.80	 0.0	 0.0	 1	    1.00611	  -12.59000	 115.0	 1	    1.06000	    0.94000;
	48	 1	 46.36	 19.00	 0.0	 0.0	 1	    1.02935	  -11.63593	 115.0	 1	    1.06000	    0.94000;
	49	 1	 104.03	 26.00	 0.0	 0.0	 1	    1.05750	   -2.06642	 115.0	 1	    1.06000	    0.94000;
	51	 1	 -5.00	 5.00	 0.0	 0.0	 1	    1.04503	   -5.20734	 115.0	 1	    1.06000	    0.94000;
	52	 1	 68.97	 28.00	 0.0	 0.0	 1	    1.02906	   -8.78045	 115.0	 1	    1.06000	    0.94000;
	53	 1	 78.02	 3.00	 0.0	 0.0	 1	    1.02185	  -11.15301	 115.0	 1	    1.06000	    0.94000;
	54	 1	 11.31	 1.00	 0.0	 0.0	 1	    1.03573	   -9.80816	 115.0	 1	    1.06000	    0.94000;
	55	 1	 24.88	 10.00	 0.0	 0.0	 1	    1.05527	   -8.79880	 115.0	 1	    1.06000	    0.94000;
	57	 1	 110.81	 20.00	 0.0	 0.0	 1	    1.05188	  -16.66989	 115.0	 1	    1.06000	    0.94000;
	58	 1	 15.83	 1.00	 0.0	 0.0	 1	    1.02908	  -13.39506	 115.0	 1	    1.06000	    0.94000;
	59	 1	 246.50	 106.00	 0.0	 0.0	 1	    1.02084	  -12.24321	 115.0	 1	    1.06000	    0.94000;
	60	 1	 0.00	 0.00	 0.0	 0.0	 1	    1.05745	   -4.20753	 230.0	 1	    1.06000	    0.94000;
	61	 1	 256.68	 110.00	 0.0	 0.0	 1	    1.03419	  -10.11678	 115.0	 1	    1.06000	    0.94000;
	62	 1	 0.00	 0.00	 0.0	 0.0	 1	    1.05717	   -2.93709	 230.0	 1	    1.06000	    0.94000;
	63	 2	 79.15	 30.00	 0.0	 0.0	 1	    1.06000	  -19.88374	 115.0	 1	    1.06000	    0.94000;
	64	 1	 0.00	 0.00	 0.0	 0.0	 1	    1.03114	  -15.42999	 230.0	 1	    1.06000	    0.94000;
	69	 1	 0.00	 0.00	 0.0	 0.0	 1	    0.96266	   -9.32211	 115.0	 1	    1.06000	    0.94000;
	70	 1	 63.32	 20.00	 0.0	 0.0	 1	    0.99456	  -18.15439	 115.0	 1	    1.06000	    0.94000;
	71	 1	 131.16	 38.00	 0.0	 0.0	 1	    1.02346	  -12.89946	 115.0	 1	    1.06000	    0.94000;
	72	 1	 64.45	 19.00	 0.0	 0.0	 1	    1.00256	  -13.63314	 115.0	 1	    1.06000	    0.94000;
	73	 1	 253.28	 71.00	 0.0	 0.0	 1	    1.00172	  -11.28517	 115.0	 1	    1.06000	    0.94000;
	74	 1	 0.00	 0.00	 0.0	 0.0	 1	    1.00287	   -6.14858	 230.0	 1	    1.06000	    0.94000;
	76	 2	 235.19	 107.00	 0.0	 0.0	 1	    1.00987	  -13.42599	 115.0	 1	    1.06000	    0.94000;
	77	 1	 83.67	 28.00	 0.0	 0.0	 1	    1.00777	  -12.88052	 115.0	 1	    1.06000	    0.94000;
	78	 1	 0.00	 0.00	 0.0	 0.0	 1	    1.01181	  -12.92457	 115.0	 1	    1.06000	    0.94000;
	79	 1	 54.27	 14.00	 0.0	 0.0	 1	    0.99956	  -12.19383	 115.0	 1	    1.06000	    0.94000;
	80	 1	 31.66	 7.00	 0.0	 0.0	 1	    0.99019	   -9.01463	 115.0	 1	    1.06000	    0.94000;
	81	 1	 0.00	 0.00	 0.0	 0.0	 1	    1.00111	    7.27750	 345.0	 1	    1.06000	    0.94000;
	84	 2	 41.84	 13.00	 0.0	 0.0	 1	    1.06000	  -13.72925	 115.0	 1	    1.06000	    0.94000;
	85	 1	 0.00	 0.00	 0.0	 0.0	 1	    1.05478	  -14.46298	 230.0	 1	    1.06000	    0.94000;
	86	 1	 0.00	 0.00	 0.0	 0.0	 1	    1.04646	  -16.85228	 230.0	 1	    1.06000	    0.94000;
	87	 1	 0.00	 0.00	 0.0	 0.0	 1	    1.04119	  -17.85680	 230.0	 1	    1.06000	    0.94000;
	88	 1	 0.00	 0.00	 0.0	 0.0	 1	    1.00297	   -0.22479	 230.0	 1	    1.06000	    0.94000;
	89	 1	 44.20	 0.00	 0.0	 0.0	 1	    1.02672	  -13.42258	 115.0	 1	    1.06000	    0.94000;
	90	 1	 66.00	 0.00	 0.0	 0.0	 1	    1.03123	   -8.90796	 115.0	 1	    1.06000	    0.94000;
	91	 2	 17.40	 0.00	 0.0	 0.0	 1	    1.06000	  -17.49668	 115.0	 1	    1.06000	    0.94000;
	92	 2	 15.80	 0.00	 0.0	 0.0	 1	    1.06000	   -6.91071	 115.0	 1	    1.06000	    0.94000;
	94	 1	 60.30	 0.00	 0.0	 0.0	 1	    1.03082	  -18.90641	 115.0	 1	    1.06000	    0.94000;
	97	 1	 39.90	 0.00	 0.0	 0.0	 1	    1.04914	  -17.94781	 115.0	 1	    1.06000	    0.94000;
	98	 2	 66.70	 0.00	 0.0	 0.0	 1	    1.05088	  -20.40859	 115.0	 1	    1.06000	    0.94000;
	99	 1	 83.50	 0.00	 0.0	 0.0	 1	    1.05485	  -12.66653	 115.0	 1	    1.06000	    0.94000;
	100	 1	 0.00	 0.00	 0.0	 0.0	 1	    1.04838	  -18.83621	 115.0	 1	    1.06000	    0.94000;
	102	 1	 77.80	 0.00	 0.0	 0.0	 1	    1.04695	  -18.51351	 115.0	 1	    1.06000	    0.94000;
	103	 1	 32.00	 0.00	 0.0	 0.0	 1	    1.05299	  -12.85032	 115.0	 1	    1.06000	    0.94000;
	104	 1	 8.60	 0.00	 0.0	 0.0	 1	    1.05252	  -16.75558	 115.0	 1	    1.06000	    0.94000;
	105	 1	 49.60	 0.00	 0.0	 0.0	 1	    1.04930	  -11.90467	 115.0	 1	    1.06000	    0.94000;
	107	 1	 4.60	 0.00	 0.0	 0.0	 1	    1.04157	  -12.06323	 115.0	 1	    1.06000	    0.94000;
	108	 2	 112.10	 0.00	 0.0	 0.0	 1	    1.06000	  -12.22223	 115.0	 1	    1.06000	    0.94000;
	109	 1	 30.70	 0.00	 0.0	 0.0	 1	    1.02205	  -17.23443	 115.0	 1	    1.06000	    0.94000;
	110	 1	 63.00	 0.00	 0.0	 0.0	 1	    1.02576	  -17.12975	 115.0	 1	    1.06000	    0.94000;
	112	 1	 19.60	 0.00	 0.0	 0.0	 1	    1.00412	  -18.47329	 115.0	 1	    1.06000	    0.94000;
	113	 1	 26.20	 0.00	 0.0	 0.0	 1	    1.00395	  -15.26137	 115.0	 1	    1.06000	    0.94000;
	114	 1	 18.20	 0.00	 0.0	 0.0	 1	    1.00390	  -18.11718	 115.0	 1	    1.06000	    0.94000;
	115	 1	 0.00	 0.00	 0.0	 0.0	 1	    0.98339	  -39.62245	 115.0	 2	    1.06000	    0.94000;
	116	 1	 0.00	 0.00	 0.0	 0.0	 1	    1.04917	  -27.95438	 115.0	 2	    1.06000	    0.94000;
	117	 1	 0.00	 0.00	 0.0	 325.0	 1	    0.96851	  -31.79088	 115.0	 2	    1.06000	    0.94000;
	118	 1	 15.94	 650.00	 0.0	 0.0	 1	    0.96313	  -31.55848	 115.0	 2	    1.06000	    0.94000;
	119	 2	 0.00	 0.00	 0.0	 0.0	 1	    1.06000	  -26.89807	 115.0	 2	    1.06000	    0.94000;
	120	 1	 878.58	 215.00	 0.0	 55.0	 1	    0.98461	  -37.60732	 115.0	 2	    1.06000	    0.94000;
	121	 1	 604.94	 55.00	 0.0	 0.0	 1	    1.01491	  -41.18821	 115.0	 2	    1.06000	    0.94000;
	122	 1	 259.05	 11.80	 0.0	 0.0	 1	    0.99908	  -38.67209	 115.0	 2	    1.06000	    0.94000;
	123	 1	 88.20	 1.40	 0.0	 0.0	 1	    1.03327	  -35.06635	 115.0	 2	    1.06000	    0.94000;
	124	 2	 312.53	 59.30	 0.0	 0.0	 1	    1.06000	  -26.64990	 115.0	 2	    1.06000	    0.94000;
	125	 2	 582.10	 82.70	 0.0	 0.0	 1	    1.05593	  -37.16663	 115.0	 2	    1.06000	    0.94000;
	126	 1	 65.47	 5.10	 0.0	 0.0	 1	    1.02894	  -31.14093	 115.0	 2	    1.06000	    0.94000;
	127	 1	 430.58	 37.00	 0.0	 0.0	 1	    1.01806	  -24.29502	 230.0	 2	    1.06000	    0.94000;
	128	 1	 0.00	 0.00	 0.0	 0.0	 1	    1.03563	  -18.94803	 230.0	 2	    1.06000	    0.94000;
	129	 1	 0.00	 0.00	 0.0	 0.0	 1	    1.03796	  -19.14664	 230.0	 2	    1.06000	    0.94000;
	130	 1	 0.00	 0.00	 0.0	 0.0	 1	    1.05862	  -14.50099	 230.0	 2	    1.06000	    0.94000;
	131	 1	 0.00	 0.00	 0.0	 0.0	 1	    1.01340	  -11.67152	 230.0	 2	    1.06000	    0.94000;
	132	 1	 0.00	 0.00	 0.0	 0.0	 1	    1.05795	  -15.80763	 230.0	 2	    1.06000	    0.94000;
	133	 1	 0.00	 0.00	 0.0	 0.0	 1	    1.03594	  -18.30972	 230.0	 2	    1.06000	    0.94000;
	134	 1	 0.00	 0.00	 0.0	 0.0	 1	    1.02535	  -16.92252	 230.0	 2	    1.06000	    0.94000;
	135	 1	 191.32	 41.60	 0.0	 0.0	 1	    1.02055	  -15.57875	 230.0	 2	    1.06000	    0.94000;
	136	 1	 62.42	 18.20	 0.0	 0.0	 1	    1.04875	   -6.42596	 230.0	 2	    1.06000	    0.94000;
	137	 1	 309.37	 99.80	 0.0	 0.0	 1	    1.04435	   -9.57132	 230.0	 2	    1.06000	    0.94000;
	138	 2	 1152.44	 135.20	 0.0	 0.0	 1	    1.06000	  -13.91256	 230.0	 2	    1.06000	    0.94000;
	139	 1	 672.78	 83.30	 0.0	 0.0	 1	    1.00180	  -26.32108	 115.0	 2	    1.06000	    0.94000;
	140	 1	 438.38	 114.70	 0.0	 0.0	 1	    1.02602	  -16.67539	 230.0	 2	    1.06000	    0.94000;
	141	 2	 163.96	 58.00	 0.0	 0.0	 1	    1.05345	   -9.85456	 230.0	 2	    1.06000	    0.94000;
	142	 1	 63.89	 24.50	 0.0	 0.0	 1	    1.00292	  -16.88881	 230.0	 2	    1.06000	    0.94000;
	143	 2	 101.20	 35.50	 0.0	 0.0	 1	    1.04546	   -9.07016	 230.0	 2	    1.06000	    0.94000;
	144	 1	 0.00	 0.00	 0.0	 0.0	 1	    1.05203	   -3.36431	 230.0	 2	    1.06000	    0.94000;
	145	 1	 27.14	 14.00	 0.0	 0.0	 1	    1.01001	  -15.04281	 230.0	 2	    1.06000	    0.94000;
	146	 2	 0.00	 0.00	 0.0	 0.0	 1	    1.05770	  -12.56130	 230.0	 2	    1.06000	    0.94000;
	147	 2	 0.00	 0.00	 0.0	 0.0	 1	    1.06000	  -10.10511	 230.0	 2	    1.06000	    0.94000;
	148	 1	 71.24	 25.00	 0.0	 0.0	 1	    1.06000	  -13.11231	 230.0	 2	    1.06000	    0.94000;
	149	 2	 0.00	 0.00	 0.0	 0.0	 1	    1.04957	  -11.41247	 230.0	 2	    1.06000	    0.94000;
	150	 1	 0.00	 0.00	 0.0	 0.0	 1	    1.01323	  -10.99386	 230.0	 2	    1.06000	    0.94000;
	151	 1	 0.00	 0.00	 0.0	 0.0	 1	    1.06000	  -14.75580	 230.0	 2	    1.06000	    0.94000;
	152	 2	 19.22	 9.00	 0.0	 0.0	 1	    1.06000	    1.95598	 230.0	 2	    1.06000	    0.94000;
	153	 2	 0.00	 0.00	 0.0	 0.0	 1	    1.06000	    5.05338	 230.0	 2	    1.06000	    0.94000;
	154	 1	 79.15	 5.00	 0.0	 34.5	 1	    0.99838	   -8.18190	 115.0	 2	    1.06000	    0.94000;
	155	 1	 226.15	 50.00	 0.0	 0.0	 1	    1.05537	    0.29358	 230.0	 2	    1.06000	    0.94000;
	156	 2	 84.80	 50.00	 0.0	 0.0	 1	    1.01623	   -1.41148	 115.0	 2	    1.06000	    0.94000;
	157	 1	 123.50	 -24.30	 0.0	 0.0	 1	    1.01298	  -35.23605	 230.0	 2	    1.06000	    0.94000;
	158	 1	 0.00	 0.00	 0.0	 0.0	 1	    1.02975	  -31.68900	 230.0	 2	    1.06000	    0.94000;
	159	 1	 37.31	 16.50	 0.0	 0.0	 1	    1.01723	  -33.68277	 230.0	 2	    1.06000	    0.94000;
	160	 1	 0.00	 0.00	 0.0	 0.0	 1	    1.03636	  -28.95263	 230.0	 2	    1.06000	    0.94000;
	161	 1	 39.58	 15.00	 0.0	 0.0	 1	    1.05943	    3.03789	 230.0	 2	    1.06000	    0.94000;
	162	 1	 96.11	 24.00	 0.0	 0.0	 1	    1.02351	   12.77983	 230.0	 2	    1.06000	    0.94000;
	163	 1	 0.00	 0.40	 0.0	 0.0	 1	    1.04932	   -4.39069	 230.0	 2	    1.06000	    0.94000;
	164	 1	 0.00	 0.00	 0.0	 -212.0	 1	    1.01176	    3.27786	 230.0	 2	    1.06000	    0.94000;
	165	 1	 0.00	 0.00	 0.0	 0.0	 1	    1.03727	   21.08661	 230.0	 2	    1.06000	    0.94000;
	166	 1	 0.00	 0.00	 0.0	 -103.0	 1	    1.03739	   25.22138	 230.0	 2	    1.06000	    0.94000;
	167	 1	 339.11	 95.70	 0.0	 0.0	 1	    1.00897	  -22.65741	 230.0	 2	    1.06000	    0.94000;
	168	 1	 0.00	 0.00	 0.0	 0.0	 1	    1.03559	  -18.95820	 230.0	 2	    1.06000	    0.94000;
	169	 1	 0.00	 0.00	 0.0	 0.0	 1	    1.02200	  -21.28069	 230.0	 2	    1.06000	    0.94000;
	170	 2	 544.78	 205.00	 0.0	 0.0	 1	    1.01335	  -15.39877	 115.0	 2	    1.06000	    0.94000;
	171	 2	 863.42	 291.10	 0.0	 0.0	 1	    1.06000	  -22.89655	 115.0	 2	    1.06000	    0.94000;
	172	 1	 26.50	 0.00	 0.0	 0.0	 1	    1.00774	  -23.31301	 115.0	 2	    1.06000	    0.94000;
	173	 1	 184.87	 43.00	 0.0	 53.0	 1	    0.95095	  -29.56802	 115.0	 2	    1.06000	    0.94000;
	174	 1	 0.00	 0.00	 0.0	 0.0	 1	    1.05661	  -14.62820	 115.0	 2	    1.06000	    0.94000;
	175	 1	 199.01	 83.00	 0.0	 0.0	 1	    0.95587	  -22.58529	 115.0	 2	    1.06000	    0.94000;
	176	 2	 5.65	 4.00	 0.0	 0.0	 1	    1.01496	  -12.78277	 115.0	 2	    1.06000	    0.94000;
	177	 2	 31.66	 12.00	 0.0	 0.0	 1	    1.06000	   -8.19240	 115.0	 2	    1.06000	    0.94000;
	178	 1	 483.27	 173.60	 0.0	 0.0	 1	    0.94653	  -20.19787	 115.0	 2	    1.06000	    0.94000;
	179	 1	 83.67	 29.00	 0.0	 45.0	 1	    0.96398	  -23.98155	 115.0	 2	    1.06000	    0.94000;
	180	 1	 78.59	 49.30	 0.0	 0.0	 1	    0.98260	  -17.57354	 115.0	 2	    1.06000	    0.94000;
	181	 1	 73.40	 0.00	 0.0	 0.0	 1	    1.04916	   -8.18678	 230.0	 2	    1.06000	    0.94000;
	182	 1	 272.17	 89.00	 0.0	 0.0	 1	    1.02135	  -21.26003	 230.0	 2	    1.06000	    0.94000;
	183	 1	 45.23	 4.00	 0.0	 0.0	 1	    0.98968	    1.43317	 115.0	 2	    1.06000	    0.94000;
	184	 1	 154.68	 16.60	 0.0	 0.0	 1	    1.03884	  -10.36546	 230.0	 2	    1.06000	    0.94000;
	185	 2	 0.00	 0.00	 0.0	 0.0	 1	    1.06000	   -4.30447	 230.0	 2	    1.06000	    0.94000;
	186	 2	 67.62	 24.30	 0.0	 0.0	 1	    1.06000	   -4.44804	 230.0	 2	    1.06000	    0.94000;
	187	 2	 67.62	 24.30	 0.0	 0.0	 1	    1.06000	   -2.15909	 230.0	 2	    1.06000	    0.94000;
	188	 1	 206.47	 43.60	 0.0	 0.0	 1	    1.04968	   -7.58546	 230.0	 2	    1.06000	    0.94000;
	189	 1	 7.92	 2.00	 0.0	 0.0	 1	    0.99640	  -10.38376	 66.0	 3	    1.06000	    0.94000;
	190	 2	 0.00	 0.00	 0.0	 -150.0	 1	    1.06000	   28.71473	 345.0	 3	    1.06000	    0.94000;
	191	 2	 552.93	 53.00	 0.0	 0.0	 1	    1.06000	   25.61049	 230.0	 3	    1.06000	    0.94000;
	192	 1	 904.58	 72.00	 0.0	 0.0	 1	    0.97368	   10.73846	 230.0	 3	    1.06000	    0.94000;
	193	 1	 0.00	 0.00	 0.0	 0.0	 1	    0.98746	  -10.23260	 66.0	 3	    1.06000	    0.94000;
	194	 1	 0.00	 0.00	 0.0	 0.0	 1	    1.01563	   19.35916	 345.0	 3	    1.06000	    0.94000;
	195	 1	 0.00	 0.00	 0.0	 0.0	 1	    0.99859	   14.21525	 345.0	 3	    1.06000	    0.94000;
	196	 1	 11.31	 3.00	 0.0	 0.0	 1	    0.95590	   -7.69627	 115.0	 3	    1.06000	    0.94000;
	197	 1	 48.62	 14.00	 0.0	 0.0	 1	    0.97454	   -5.11436	 115.0	 3	    1.06000	    0.94000;
	198	 2	 72.37	 21.00	 0.0	 0.0	 1	    1.01108	   -5.54187	 115.0	 3	    1.06000	    0.94000;
	199	 1	 39.58	 12.00	 0.0	 0.0	 1	    0.95372	   -8.12606	 115.0	 3	    1.06000	    0.94000;
	200	 1	 30.53	 12.00	 0.0	 0.0	 1	    0.97067	   -6.40385	 115.0	 3	    1.06000	    0.94000;
	201	 1	 46.36	 14.00	 0.0	 0.0	 1	    0.96710	  -11.58604	 66.0	 1	    1.06000	    0.94000;
	202	 1	 42.97	 13.00	 0.0	 0.0	 1	    0.98326	   -4.33855	 66.0	 3	    1.06000	    0.94000;
	203	 1	 47.49	 14.00	 0.0	 0.0	 1	    0.99446	   -4.23274	 115.0	 3	    1.06000	    0.94000;
	204	 1	 81.41	 24.00	 0.0	 0.0	 1	    0.96509	   -9.86033	 66.0	 3	    1.06000	    0.94000;
	205	 1	 0.00	 -5.00	 0.0	 0.0	 1	    0.97986	  -10.44604	 66.0	 3	    1.06000	    0.94000;
	206	 1	 13.57	 2.00	 0.0	 0.0	 1	    1.00499	  -14.79829	 66.0	 3	    1.06000	    0.94000;
	207	 1	 -21.00	 -14.20	 0.0	 0.0	 1	    1.02311	  -16.03259	 66.0	 1	    1.06000	    0.94000;
	208	 1	 7.92	 2.00	 0.0	 0.0	 1	    0.99243	  -10.99108	 66.0	 3	    1.06000	    0.94000;
	209	 1	 42.97	 13.00	 0.0	 0.0	 1	    0.99595	  -10.45882	 66.0	 3	    1.06000	    0.94000;
	210	 1	 0.00	 0.00	 0.0	 0.0	 1	    0.97389	   -7.21328	 115.0	 3	    1.06000	    0.94000;
	211	 1	 108.55	 7.00	 0.0	 0.0	 1	    0.98654	   -0.98535	 115.0	 3	    1.06000	    0.94000;
	212	 1	 0.00	 0.00	 0.0	 0.0	 1	    0.99823	    4.16614	 138.0	 3	    1.06000	    0.94000;
	213	 2	 0.00	 0.00	 0.0	 0.0	 1	    1.06000	   15.33032	 16.5	 3	    1.06000	    0.94000;
	214	 1	 24.88	 16.00	 0.0	 0.0	 1	    1.04485	   15.38498	 138.0	 3	    1.06000	    0.94000;
	215	 1	 53.14	 26.00	 0.0	 0.0	 1	    1.01559	   14.70165	 138.0	 3	    1.06000	    0.94000;
	216	 1	 199.01	 105.00	 0.0	 0.0	 1	    0.99427	   17.99659	 138.0	 3	    1.06000	    0.94000;
	217	 1	 113.07	 75.00	 0.0	 0.0	 1	    1.02478	   29.59324	 138.0	 3	    1.06000	    0.94000;
	218	 1	 148.13	 96.00	 0.0	 0.0	 1	    1.01169	   31.70344	 138.0	 3	    1.06000	    0.94000;
	219	 1	 0.00	 0.00	 0.0	 0.0	 1	    1.05315	   27.54094	 345.0	 3	    1.06000	    0.94000;
	220	 2	 322.26	 100.00	 0.0	 0.0	 1	    1.05999	   43.54928	 138.0	 3	    1.06000	    0.94000;
	221	 2	 193.35	 70.00	 0.0	 0.0	 1	    1.06000	   35.72110	 138.0	 3	    1.06000	    0.94000;
...
];

%% generator data
%	bus	Pg	Qg	Qmax	Qmin	Vg	mBase	status	Pmax	Pmin	Pc1	Pc2	Qc1min	Qc1max	Qc2min	Qc2max	ramp_agc	ramp_10	ramp_30	ramp_q	apf
mpc.gen = [
	8	 0.0	 224.717	 289.2	 -289.2	 1.06	 100.0	 1	 0	 0.0	 0.0	 0.0	 0.0	 0.0	 0.0	 0.0	 0.0	 0.0	 0.0	 0.0	 0.0; % SYNC
	10	 0.0	 20.0	 20.0	 -20.0	 1.05071	 100.0	 1	 0	 0.0	 0.0	 0.0	 0.0	 0.0	 0.0	 0.0	 0.0	 0.0	 0.0	 0.0	 0.0; % SYNC
	20	 0.0	 214.781	 310.8	 -310.8	 1.06	 100.0	 1	 0	 0.0	 0.0	 0.0	 0.0	 0.0	 0.0	 0.0	 0.0	 0.0	 0.0	 0.0	 0.0; % SYNC
	63	 0.0	 67.0	 79.2	 -79.2	 1.06	 100.0	 1	 0	 0.0	 0.0	 0.0	 0.0	 0.0	 0.0	 0.0	 0.0	 0.0	 0.0	 0.0	 0.0; % SYNC
	76	 0.0	 218.4	 218.4	 -218.4	 1.00987	 100.0	 1	 0	 0.0	 0.0	 0.0	 0.0	 0.0	 0.0	 0.0	 0.0	 0.0	 0.0	 0.0	 0.0; % SYNC
	84	 0.0	 155.185	 243.0	 -243.0	 1.06	 100.0	 1	 485	 0.0	 0.0	 0.0	 0.0	 0.0	 0.0	 0.0	 0.0	 0.0	 0.0	 0.0	 0.0; % NG
	91	 0.0	 63.044	 91.0	 -55.0	 1.06	 100.0	 1	 109	 0.0	 0.0	 0.0	 0.0	 0.0	 0.0	 0.0	 0.0	 0.0	 0.0	 0.0	 0.0; % NG
	92	 225.0	 6.762	 153.0	 -153.0	 1.06	 100.0	 1	 225	 0.0	 0.0	 0.0	 0.0	 0.0	 0.0	 0.0	 0.0	 0.0	 0.0	 0.0	 0.0; % NG
	98	 0.0	 29.936	 95.0	 -95.0	 1.05088	 100.0	 1	 190	 0.0	 0.0	 0.0	 0.0	 0.0	 0.0	 0.0	 0.0	 0.0	 0.0	 0.0	 0.0; % NG
	108	 419.917	 -5.398	 217.0	 -217.0	 1.06	 100.0	 1	 433	 0.0	 0.0	 0.0	 0.0	 0.0	 0.0	 0.0	 0.0	 0.0	 0.0	 0.0	 0.0; % NG
	119	 1448.0	 852.191	 985.0	 -1105.2	 1.06	 100.0	 1	 1448	 0.0	 0.0	 0.0	 0.0	 0.0	 0.0	 0.0	 0.0	 0.0	 0.0	 0.0	 0.0; % COW
	124	 739.959	 113.088	 463.0	 -463.0	 1.06	 100.0	 1	 926	 0.0	 0.0	 0.0	 0.0	 0.0	 0.0	 0.0	 0.0	 0.0	 0.0	 0.0	 0.0; % NG
	125	 0.0	 301.751	 430.8	 -430.8	 1.05593	 100.0	 1	 0	 0.0	 0.0	 0.0	 0.0	 0.0	 0.0	 0.0	 0.0	 0.0	 0.0	 0.0	 0.0; % SYNC
	138	 0.0	 330.079	 350.0	 -259.2	 1.06	 100.0	 1	 0	 0.0	 0.0	 0.0	 0.0	 0.0	 0.0	 0.0	 0.0	 0.0	 0.0	 0.0	 0.0; % SYNC
	141	 502.48	 92.079	 266.0	 -266.0	 1.05345	 100.0	 1	 531	 0.0	 0.0	 0.0	 0.0	 0.0	 0.0	 0.0	 0.0	 0.0	 0.0	 0.0	 0.0; % NG
	143	 649.315	 131.119	 392.0	 -392.0	 1.04546	 100.0	 1	 784	 0.0	 0.0	 0.0	 0.0	 0.0	 0.0	 0.0	 0.0	 0.0	 0.0	 0.0	 0.0; % COW
	146	 0.0	 44.899	 158.4	 -158.4	 1.0577	 100.0	 1	 186	 0.0	 0.0	 0.0	 0.0	 0.0	 0.0	 0.0	 0.0	 0.0	 0.0	 0.0	 0.0; % NG
	147	 131.0	 -33.933	 145.2	 -145.2	 1.06	 100.0	 1	 131	 0.0	 0.0	 0.0	 0.0	 0.0	 0.0	 0.0	 0.0	 0.0	 0.0	 0.0	 0.0; % NG
	149	 0.0	 14.72	 184.0	 -184.0	 1.04957	 100.0	 1	 367	 0.0	 0.0	 0.0	 0.0	 0.0	 0.0	 0.0	 0.0	 0.0	 0.0	 0.0	 0.0; % COW
	152	 373.0	 -40.551	 187.0	 -187.0	 1.06	 100.0	 1	 373	 0.0	 0.0	 0.0	 0.0	 0.0	 0.0	 0.0	 0.0	 0.0	 0.0	 0.0	 0.0; % NG
	153	 292.0	 -50.508	 146.0	 -146.0	 1.06	 100.0	 1	 292	 0.0	 0.0	 0.0	 0.0	 0.0	 0.0	 0.0	 0.0	 0.0	 0.0	 0.0	 0.0; % NG
	156	 0.0	 87.6	 87.6	 -87.6	 1.01623	 100.0	 1	 0	 0.0	 0.0	 0.0	 0.0	 0.0	 0.0	 0.0	 0.0	 0.0	 0.0	 0.0	 0.0; % SYNC
	170	 534.247	 229.97	 296.0	 -296.0	 1.01335	 100.0	 1	 591	 0.0	 0.0	 0.0	 0.0	 0.0	 0.0	 0.0	 0.0	 0.0	 0.0	 0.0	 0.0; % NG
	171	 0.0	 595.564	 764.4	 -764.4	 1.06	 100.0	 1	 0	 0.0	 0.0	 0.0	 0.0	 0.0	 0.0	 0.0	 0.0	 0.0	 0.0	 0.0	 0.0; % SYNC
	176	 0.0	 -12.704	 155.0	 -155.0	 1.01496	 100.0	 1	 310	 0.0	 0.0	 0.0	 0.0	 0.0	 0.0	 0.0	 0.0	 0.0	 0.0	 0.0	 0.0; % NG
	177	 415.666	 131.008	 220.0	 -220.0	 1.06	 100.0	 1	 440	 0.0	 0.0	 0.0	 0.0	 0.0	 0.0	 0.0	 0.0	 0.0	 0.0	 0.0	 0.0; % NG
	185	 481.461	 58.318	 289.0	 -289.0	 1.06	 100.0	 1	 577	 0.0	 0.0	 0.0	 0.0	 0.0	 0.0	 0.0	 0.0	 0.0	 0.0	 0.0	 0.0; % NG
	186	 1442.618	 207.679	 965.0	 -965.0	 1.06	 100.0	 1	 1930	 0.0	 0.0	 0.0	 0.0	 0.0	 0.0	 0.0	 0.0	 0.0	 0.0	 0.0	 0.0; % NG
	187	 2712.0	 240.79	 1356.0	 -1356.0	 1.06	 100.0	 1	 2712	 0.0	 0.0	 0.0	 0.0	 0.0	 0.0	 0.0	 0.0	 0.0	 0.0	 0.0	 0.0; % COW
	190	 0.0	 -42.772	 276.0	 -276.0	 1.06	 100.0	 1	 31	 0.0	 0.0	 0.0	 0.0	 0.0	 0.0	 0.0	 0.0	 0.0	 0.0	 0.0	 0.0; % COW
	191	 1505.491	 453.702	 1106.0	 -1106.0	 1.06	 100.0	 1	 2211	 0.0	 0.0	 0.0	 0.0	 0.0	 0.0	 0.0	 0.0	 0.0	 0.0	 0.0	 0.0; % COW
	198	 61.292	 229.0	 229.0	 -229.0	 1.01108	 100.0	 1	 398	 0.0	 0.0	 0.0	 0.0	 0.0	 0.0	 0.0	 0.0	 0.0	 0.0	 0.0	 0.0; % NG
	213	 0.0	 42.263	 158.0	 -158.0	 1.06	 100.0	 1	 316	 0.0	 0.0	 0.0	 0.0	 0.0	 0.0	 0.0	 0.0	 0.0	 0.0	 0.0	 0.0; % NG
	220	 957.0	 625.496	 1216.8	 -1216.8	 1.05999	 100.0	 1	 957	 0.0	 0.0	 0.0	 0.0	 0.0	 0.0	 0.0	 0.0	 0.0	 0.0	 0.0	 0.0; % COW
	221	 800.0	 336.944	 658.8	 -658.8	 1.06	 100.0	 1	 800	 0.0	 0.0	 0.0	 0.0	 0.0	 0.0	 0.0	 0.0	 0.0	 0.0	 0.0	 0.0; % COW
	222	 0.0	 157.0	 157.0	 -157.0	 1.03157	 100.0	 1	 314	 0.0	 0.0	 0.0	 0.0	 0.0	 0.0	 0.0	 0.0	 0.0	 0.0	 0.0	 0.0; % NG
	227	 1227.358	 429.733	 673.0	 -673.0	 1.06	 100.0	 1	 1345	 0.0	 0.0	 0.0	 0.0	 0.0	 0.0	 0.0	 0.0	 0.0	 0.0	 0.0	 0.0; % COW
	230	 0.0	 52.032	 229.0	 -229.0	 1.05558	 100.0	 1	 412	 0.0	 0.0	 0.0	 0.0	 0.0	 0.0	 0.0	 0.0	 0.0	 0.0	 0.0	 0.0; % COW
	233	 1058.851	 271.759	 834.0	 -834.0	 1.04835	 100.0	 1	 1667	 0.0	 0.0	 0.0	 0.0	 0.0	 0.0	 0.0	 0.0	 0.0	 0.0	 0.0	 0.0; % NUC
	236	 1244.0	 549.643	 622.0	 -622.0	 1.06	 100.0	 1	 1244	 0.0	 0.0	 0.0	 0.0	 0.0	 0.0	 0.0	 0.0	 0.0	 0.0	 0.0	 0.0; % COW
	238	 1421.253	 59.029	 1614.0	 -1614.0	 1.06	 100.0	 1	 1856	 0.0	 0.0	 0.0	 0.0	 0.0	 0.0	 0.0	 0.0	 0.0	 0.0	 0.0	 0.0; % COW
	239	 799.0	 93.886	 400.0	 -400.0	 1.05022	 100.0	 1	 799	 0.0	 0.0	 0.0	 0.0	 0.0	 0.0	 0.0	 0.0	 0.0	 0.0	 0.0	 0.0; % COW
	241	 0.0	 3.375	 297.0	 -297.0	 1.06	 100.0	 1	 371	 0.0	 0.0	 0.0	 0.0	 0.0	 0.0	 0.0	 0.0	 0.0	 0.0	 0.0	 0.0; % COW
	242	 455.0	 206.693	 228.0	 -228.0	 1.06	 100.0	 1	 455	 0.0	 0.0	 0.0	 0.0	 0.0	 0.0	 0.0	 0.0	 0.0	 0.0	 0.0	 0.0; % COW
	243	 0.0	 66.645	 151.0	 -151.0	 1.06	 100.0	 1	 301	 0.0	 0.0	 0.0	 0.0	 0.0	 0.0	 0.0	 0.0	 0.0	 0.0	 0.0	 0.0; % NG
	7001	 762.0	 126.502	 381.0	 -381.0	 1.06	 100.0	 1	 762	 0.0	 0.0	 0.0	 0.0	 0.0	 0.0	 0.0	 0.0	 0.0	 0.0	 0.0	 0.0; % COW
	7002	 747.0	 15.087	 374.0	 -374.0	 1.06	 100.0	 1	 747	 0.0	 0.0	 0.0	 0.0	 0.0	 0.0	 0.0	 0.0	 0.0	 0.0	 0.0	 0.0; % COW
	7003	 947.0	 420.108	 474.0	 -474.0	 1.06	 100.0	 1	 947	 0.0	 0.0	 0.0	 0.0	 0.0	 0.0	 0.0	 0.0	 0.0	 0.0	 0.0	 0.0; % COW
	7011	 58.228	 102.195	 307.0	 -307.0	 1.06	 100.0	 1	 614	 0.0	 0.0	 0.0	 0.0	 0.0	 0.0	 0.0	 0.0	 0.0	 0.0	 0.0	 0.0; % NG
	7012	 0.0	 125.175	 294.0	 -294.0	 1.06	 100.0	 1	 587	 0.0	 0.0	 0.0	 0.0	 0.0	 0.0	 0.0	 0.0	 0.0	 0.0	 0.0	 0.0; % NG
	7017	 1129.0	 191.484	 565.0	 -565.0	 1.01277	 100.0	 1	 1129	 0.0	 0.0	 0.0	 0.0	 0.0	 0.0	 0.0	 0.0	 0.0	 0.0	 0.0	 0.0; % COW
	7023	 0.0	 -38.356	 358.0	 -358.0	 1.05161	 100.0	 1	 716	 0.0	 0.0	 0.0	 0.0	 0.0	 0.0	 0.0	 0.0	 0.0	 0.0	 0.0	 0.0; % NG
	7024	 323.0	 110.388	 224.0	 -224.0	 1.06	 100.0	 1	 323	 0.0	 0.0	 0.0	 0.0	 0.0	 0.0	 0.0	 0.0	 0.0	 0.0	 0.0	 0.0; % NG
	7039	 859.157	 243.262	 446.0	 -446.0	 1.06	 100.0	 1	 891	 0.0	 0.0	 0.0	 0.0	 0.0	 0.0	 0.0	 0.0	 0.0	 0.0	 0.0	 0.0; % COW
	7044	 38.28	 57.011	 73.0	 -73.0	 1.06	 100.0	 1	 146	 0.0	 0.0	 0.0	 0.0	 0.0	 0.0	 0.0	 0.0	 0.0	 0.0	 0.0	 0.0; % NG
	7049	 325.962	 27.237	 362.0	 -362.0	 1.06	 100.0	 1	 723	 0.0	 0.0	 0.0	 0.0	 0.0	 0.0	 0.0	 0.0	 0.0	 0.0	 0.0	 0.0; % COW
	7055	 139.017	 56.34	 88.0	 -88.0	 1.06	 100.0	 1	 176	 0.0	 0.0	 0.0	 0.0	 0.0	 0.0	 0.0	 0.0	 0.0	 0.0	 0.0	 0.0; % NG
	7057	 0.0	 101.0	 101.0	 -101.0	 1.04589	 100.0	 1	 201	 0.0	 0.0	 0.0	 0.0	 0.0	 0.0	 0.0	 0.0	 0.0	 0.0	 0.0	 0.0; % PEL
	7061	 330.312	 126.792	 291.0	 -291.0	 1.06	 100.0	 1	 582	 0.0	 0.0	 0.0	 0.0	 0.0	 0.0	 0.0	 0.0	 0.0	 0.0	 0.0	 0.0; % NG
	7062	 629.0	 257.822	 315.0	 -315.0	 1.06	 100.0	 1	 629	 0.0	 0.0	 0.0	 0.0	 0.0	 0.0	 0.0	 0.0	 0.0	 0.0	 0.0	 0.0; % COW
	7071	 220.0	 110.0	 110.0	 -110.0	 1.03668	 100.0	 1	 220	 0.0	 0.0	 0.0	 0.0	 0.0	 0.0	 0.0	 0.0	 0.0	 0.0	 0.0	 0.0; % NG
	7130	 0.0	 7.557	 600.0	 -344.0	 1.06	 100.0	 1	 688	 0.0	 0.0	 0.0	 0.0	 0.0	 0.0	 0.0	 0.0	 0.0	 0.0	 0.0	 0.0; % COW
	7139	 0.0	 369.425	 561.0	 -561.0	 1.06	 100.0	 1	 1122	 0.0	 0.0	 0.0	 0.0	 0.0	 0.0	 0.0	 0.0	 0.0	 0.0	 0.0	 0.0; % COW
	7166	 631.0	 183.571	 316.0	 -316.0	 1.06	 100.0	 1	 631	 0.0	 0.0	 0.0	 0.0	 0.0	 0.0	 0.0	 0.0	 0.0	 0.0	 0.0	 0.0; % COW
	9002	 0.0	 6.0	 6.0	 -6.0	 1.04516	 100.0	 1	 0	 0.0	 0.0	 0.0	 0.0	 0.0	 0.0	 0.0	 0.0	 0.0	 0.0	 0.0	 0.0; % SYNC
	9051	 0.0	 24.163	 26.4	 -26.4	 1.06	 100.0	 1	 0	 0.0	 0.0	 0.0	 0.0	 0.0	 0.0	 0.0	 0.0	 0.0	 0.0	 0.0	 0.0; % SYNC
	9053	 0.0	 11.196	 12.83	 -12.8	 1.01863	 100.0	 1	 0	 0.0	 0.0	 0.0	 0.0	 0.0	 0.0	 0.0	 0.0	 0.0	 0.0	 0.0	 0.0; % SYNC
	9054	 108.614	 58.474	 104.0	 -104.0	 1.06	 100.0	 1	 208	 0.0	 0.0	 0.0	 0.0	 0.0	 0.0	 0.0	 0.0	 0.0	 0.0	 0.0	 0.0; % NG
	9055	 0.0	 9.474	 10.8	 -10.8	 1.06	 100.0	 1	 20	 0.0	 0.0	 0.0	 0.0	 0.0	 0.0	 0.0	 0.0	 0.0	 0.0	 0.0	 0.0; % PEL
];

%% generator cost data
%	2	startup	shutdown	n	c(n-1)	...	c0
mpc.gencost = [
	2	 0.0	 0.0	 3	   0.000000	   0.000000	   0.000000; % SYNC
	2	 0.0	 0.0	 3	   0.000000	   0.000000	   0.000000; % SYNC
	2	 0.0	 0.0	 3	   0.000000	   0.000000	   0.000000; % SYNC
	2	 0.0	 0.0	 3	   0.000000	   0.000000	   0.000000; % SYNC
	2	 0.0	 0.0	 3	   0.000000	   0.000000	   0.000000; % SYNC
	2	 0.0	 0.0	 3	   0.000000	   1.073119	   0.000000; % NG
	2	 0.0	 0.0	 3	   0.000000	   1.296634	   0.000000; % NG
	2	 0.0	 0.0	 3	   0.000000	   0.793986	   0.000000; % NG
	2	 0.0	 0.0	 3	   0.000000	   1.215902	   0.000000; % NG
	2	 0.0	 0.0	 3	   0.000000	   1.053340	   0.000000; % NG
	2	 0.0	 0.0	 3	   0.000000	   0.707319	   0.000000; % COW
	2	 0.0	 0.0	 3	   0.000000	   1.308775	   0.000000; % NG
	2	 0.0	 0.0	 3	   0.000000	   0.000000	   0.000000; % SYNC
	2	 0.0	 0.0	 3	   0.000000	   0.000000	   0.000000; % SYNC
	2	 0.0	 0.0	 3	   0.000000	   1.067263	   0.000000; % NG
	2	 0.0	 0.0	 3	   0.000000	   1.016345	   0.000000; % COW
	2	 0.0	 0.0	 3	   0.000000	   1.072359	   0.000000; % NG
	2	 0.0	 0.0	 3	   0.000000	   0.920702	   0.000000; % NG
	2	 0.0	 0.0	 3	   0.000000	   1.041201	   0.000000; % COW
	2	 0.0	 0.0	 3	   0.000000	   0.848562	   0.000000; % NG
	2	 0.0	 0.0	 3	   0.000000	   0.604172	   0.000000; % NG
	2	 0.0	 0.0	 3	   0.000000	   0.000000	   0.000000; % SYNC
	2	 0.0	 0.0	 3	   0.000000	   1.002526	   0.000000; % NG
	2	 0.0	 0.0	 3	   0.000000	   0.000000	   0.000000; % SYNC
	2	 0.0	 0.0	 3	   0.000000	   0.781559	   0.000000; % NG
	2	 0.0	 0.0	 3	   0.000000	   0.767109	   0.000000; % NG
	2	 0.0	 0.0	 3	   0.000000	   1.109175	   0.000000; % NG
	2	 0.0	 0.0	 3	   0.000000	   1.069441	   0.000000; % NG
	2	 0.0	 0.0	 3	   0.000000	   0.845243	   0.000000; % COW
	2	 0.0	 0.0	 3	   0.000000	   1.017084	   0.000000; % COW
	2	 0.0	 0.0	 3	   0.000000	   0.583201	   0.000000; % COW
	2	 0.0	 0.0	 3	   0.000000	   0.959273	   0.000000; % NG
	2	 0.0	 0.0	 3	   0.000000	   1.404273	   0.000000; % NG
	2	 0.0	 0.0	 3	   0.000000	   0.434092	   0.000000; % COW
	2	 0.0	 0.0	 3	   0.000000	   0.410231	   0.000000; % COW
	2	 0.0	 0.0	 3	   0.000000	   1.410005	   0.000000; % NG
	2	 0.0	 0.0	 3	   0.000000	   0.520323	   0.000000; % COW
	2	 0.0	 0.0	 3	   0.000000	   0.678886	   0.000000; % COW
	2	 0.0	 0.0	 3	   0.000000	   0.213392	   0.000000; % NUC
	2	 0.0	 0.0	 3	   0.000000	   0.487646	   0.000000; % COW
	2	 0.0	 0.0	 3	   0.000000	   0.635697	   0.000000; % COW
	2	 0.0	 0.0	 3	   0.000000	   0.410361	   0.000000; % COW
	2	 0.0	 0.0	 3	   0.000000	   0.694674	   0.000000; % COW
	2	 0.0	 0.0	 3	   0.000000	   0.626895	   0.000000; % COW
	2	 0.0	 0.0	 3	   0.000000	   0.827187	   0.000000; % NG
	2	 0.0	 0.0	 3	   0.000000	   0.621606	   0.000000; % COW
	2	 0.0	 0.0	 3	   0.000000	   0.883025	   0.000000; % COW
	2	 0.0	 0.0	 3	   0.000000	   0.765775	   0.000000; % COW
	2	 0.0	 0.0	 3	   0.000000	   1.060944	   0.000000; % NG
	2	 0.0	 0.0	 3	   0.000000	   1.378979	   0.000000; % NG
	2	 0.0	 0.0	 3	   0.000000	   0.564746	   0.000000; % COW
	2	 0.0	 0.0	 3	   0.000000	   1.210988	   0.000000; % NG
	2	 0.0	 0.0	 3	   0.000000	   0.816544	   0.000000; % NG
	2	 0.0	 0.0	 3	   0.000000	   0.847167	   0.000000; % COW
	2	 0.0	 0.0	 3	   0.000000	   1.041811	   0.000000; % NG
	2	 0.0	 0.0	 3	   0.000000	   0.832619	   0.000000; % COW
	2	 0.0	 0.0	 3	   0.000000	   0.901066	   0.000000; % NG
	2	 0.0	 0.0	 3	   0.000000	   6.996898	   0.000000; % PEL
	2	 0.0	 0.0	 3	   0.000000	   0.992865	   0.000000; % NG
	2	 0.0	 0.0	 3	   0.000000	   0.777162	   0.000000; % COW
	2	 0.0	 0.0	 3	   0.000000	   0.769110	   0.000000; % NG
	2	 0.0	 0.0	 3	   0.000000	   1.100935	   0.000000; % COW
	2	 0.0	 0.0	 3	   0.000000	   1.443264	   0.000000; % COW
	2	 0.0	 0.0	 3	   0.000000	   0.730818	   0.000000; % COW
	2	 0.0	 0.0	 3	   0.000000	   0.000000	   0.000000; % SYNC
	2	 0.0	 0.0	 3	   0.000000	   0.000000	   0.000000; % SYNC
	2	 0.0	 0.0	 3	   0.000000	   0.000000	   0.000000; % SYNC
	2	 0.0	 0.0	 3	   0.000000	   1.101686	   0.000000; % NG
	2	 0.0	 0.0	 3	   0.000000	   6.496735	   0.000000; % PEL
];

%% branch data
%	fbus	tbus	r	x	b	rateA	rateB	rateC	ratio	angle	status	angmin	angmax
mpc.branch = [
	37	 9001	 6e-05	 0.00046	 0.0	 9900.0	 63230.0	 75.0	 1.0082	 0.0	 1	 -30.0	 30.0;
	9001	 9005	 0.0008	 0.00348	 0.0	 8215.0	 8215.0	 8215.0	 0.0	 0.0	 1	 -30.0	 30.0;
	9001	 9006	 0.02439	 0.43682	 0.0	 68.0	 68.0	 68.0	 0.9668	 0.0	 1	 -30.0	 30.0;
	9001	 9012	 0.03624	 0.64898	 0.0	 46.0	 46.0	 46.0	 0.9796	 0.0	 1	 -30.0	 30.0;
	9005	 9051	 0.01578	 0.37486	 0.0	 79.0	 79.0	 79.0	 1.0435	 0.0	 1	 -30.0	 30.0;
	9005	 9052	 0.01578	 0.37486	 0.0	 79.0	 79.0	 79.0	 0.9391	 0.0	 1	 -30.0	 30.0;
	9005	 9053	 0.01602	 0.38046	 0.0	 78.0	 78.0	 78.0	 1.0435	 0.0	 1	 -30.0	 30.0;
	9005	 9054	 0.0	 0.152	 0.0	 193.0	 193.0	 193.0	 1.0435	 0.0	 1	 -30.0	 30.0;
	9005	 9055	 0.0	 0.8	 0.0	 37.0	 37.0	 37.0	 1.0435	 0.0	 1	 -30.0	 30.0;
	9006	 9007	 0.05558	 0.24666	 0.0	 117.0	 117.0	 117.0	 0.0	 0.0	 1	 -30.0	 30.0;
	9006	 9003	 0.11118	 0.49332	 0.0	 59.0	 59.0	 59.0	 0.0	 0.0	 1	 -30.0	 30.0;
	9006	 9003	 0.11118	 0.49332	 0.0	 59.0	 59.0	 59.0	 0.0	 0.0	 1	 -30.0	 30.0;
	9012	 9002	 0.07622	 0.43286	 0.0	 67.0	 67.0	 67.0	 0.0	 0.0	 1	 -30.0	 30.0;
	9012	 9002	 0.07622	 0.43286	 0.0	 67.0	 67.0	 67.0	 0.0	 0.0	 1	 -30.0	 30.0;
	9002	 9021	 0.0537	 0.07026	 0.0	 332.0	 332.0	 332.0	 0.0	 0.0	 1	 -30.0	 30.0;
	9021	 9023	 1.1068	 0.95278	 0.0	 21.0	 21.0	 21.0	 0.0	 0.0	 1	 -30.0	 30.0;
	9021	 9022	 0.44364	 2.8152	 0.0	 11.0	 11.0	 11.0	 1.0	 0.0	 1	 -30.0	 30.0;
	9002	 9024	 0.50748	 3.2202	 0.0	 9.0	 9.0	 9.0	 1.0	 0.0	 1	 -30.0	 30.0;
	9023	 9025	 0.66688	 3.944	 0.0	 8.0	 8.0	 8.0	 1.0	 0.0	 1	 -30.0	 30.0;
	9023	 9026	 0.6113	 3.6152	 0.0	 8.0	 8.0	 8.0	 1.0	 0.0	 1	 -30.0	 30.0;
	9007	 9071	 0.4412	 2.9668	 0.0	 10.0	 10.0	 10.0	 1.0	 0.0	 1	 -30.0	 30.0;
	9007	 9072	 0.30792	 2.057	 0.0	 15.0	 15.0	 15.0	 1.0	 0.0	 1	 -30.0	 30.0;
	9007	 9003	 0.0558	 0.24666	 0.0	 116.0	 116.0	 116.0	 0.0	 0.0	 1	 -30.0	 30.0;
	9003	 9031	 0.73633	 4.6724	 0.0	 7.0	 7.0	 7.0	 1.0	 0.0	 1	 -30.0	 30.0;
	9003	 9032	 0.76978	 4.8846	 0.0	 6.0	 6.0	 6.0	 1.0	 0.0	 1	 -30.0	 30.0;
	9003	 9033	 0.75732	 4.8056	 0.0	 7.0	 7.0	 7.0	 1.0	 0.0	 1	 -30.0	 30.0;
	9003	 9044	 0.07378	 0.06352	 0.0	 302.0	 302.0	 302.0	 0.0	 0.0	 1	 -30.0	 30.0;
	9044	 9004	 0.03832	 0.02894	 0.0	 611.0	 611.0	 611.0	 0.0	 0.0	 1	 -30.0	 30.0;
	9004	 9041	 0.36614	 2.456	 0.0	 12.0	 12.0	 12.0	 1.0	 0.0	 1	 -30.0	 30.0;
	9004	 9042	 1.0593	 5.4536	 0.0	 6.0	 6.0	 6.0	 1.0	 0.0	 1	 -30.0	 30.0;
	9004	 9043	 0.1567	 1.6994	 0.0	 18.0	 18.0	 18.0	 1.0	 0.0	 1	 -30.0	 30.0;
	9003	 9034	 0.13006	 1.3912	 0.0	 21.0	 21.0	 21.0	 1.0	 0.0	 1	 -30.0	 30.0;
	9003	 9035	 0.54484	 3.4572	 0.0	 9.0	 9.0	 9.0	 1.0	 0.0	 1	 -30.0	 30.0;
	9003	 9036	 0.15426	 1.6729	 0.0	 18.0	 18.0	 18.0	 1.0	 0.0	 1	 -30.0	 30.0;
	9003	 9037	 0.3849	 2.5712	 0.0	 12.0	 12.0	 12.0	 1.0	 0.0	 1	 -30.0	 30.0;
	9003	 9038	 0.4412	 2.9668	 0.0	 10.0	 10.0	 10.0	 1.0	 0.0	 1	 -30.0	 30.0;
	9012	 9121	 0.23552	 0.99036	 0.0	 29.0	 29.0	 29.0	 0.0	 0.0	 1	 -30.0	 30.0;
	9053	 9533	 0.0	 0.75	 0.0	 40.0	 40.0	 40.0	 0.9583	 0.0	 1	 -30.0	 30.0;
	1	 5	 0.001	 0.006	 0.0	 4823.0	 4823.0	 4823.0	 0.0	 0.0	 1	 -30.0	 30.0;
	2	 6	 0.001	 0.009	 0.0	 3240.0	 3240.0	 3240.0	 0.0	 0.0	 1	 -30.0	 30.0;
	2	 8	 0.006	 0.027	 0.054	 1061.0	 1061.0	 1061.0	 0.0	 0.0	 1	 -30.0	 30.0;
	3	 7	 0.0	 0.003	 0.0	 9778.0	 9778.0	 9778.0	 0.0	 0.0	 1	 -30.0	 30.0;
	3	 19	 0.008	 0.069	 0.139	 423.0	 423.0	 423.0	 0.0	 0.0	 1	 -30.0	 30.0;
	3	 150	 0.001	 0.007	 0.0	 4149.0	 4149.0	 4149.0	 0.0	 0.0	 1	 -30.0	 30.0;
	4	 16	 0.002	 0.019	 1.127	 1536.0	 1536.0	 1536.0	 0.0	 0.0	 1	 -30.0	 30.0;
	5	 9	 0.006	 0.029	 0.018	 991.0	 991.0	 991.0	 0.0	 0.0	 1	 -30.0	 30.0;
	7	 12	 0.001	 0.009	 0.07	 3240.0	 3240.0	 3240.0	 0.0	 0.0	 1	 -30.0	 30.0;
	7	 131	 0.001	 0.007	 0.014	 4149.0	 4149.0	 4149.0	 0.0	 0.0	 1	 -30.0	 30.0;
	8	 11	 0.013	 0.0595	 0.033	 482.0	 482.0	 482.0	 0.0	 0.0	 1	 -30.0	 30.0;
	8	 14	 0.013	 0.042	 0.081	 668.0	 668.0	 668.0	 0.0	 0.0	 1	 -30.0	 30.0;
	9	 11	 0.006	 0.027	 0.013	 1061.0	 1061.0	 1061.0	 0.0	 0.0	 1	 -30.0	 30.0;
	11	 13	 0.008	 0.034	 0.018	 840.0	 840.0	 840.0	 0.0	 0.0	 1	 -30.0	 30.0;
	12	 21	 0.002	 0.015	 0.118	 1939.0	 1939.0	 1939.0	 0.0	 0.0	 1	 -30.0	 30.0;
	13	 20	 0.006	 0.034	 0.016	 850.0	 850.0	 850.0	 0.0	 0.0	 1	 -30.0	 30.0;
	14	 15	 0.014	 0.042	 0.097	 663.0	 663.0	 663.0	 0.0	 0.0	 1	 -30.0	 30.0;
	15	 37	 0.065	 0.248	 0.121	 115.0	 115.0	 115.0	 0.0	 0.0	 1	 -30.0	 30.0;
	15	 89	 0.099	 0.248	 0.035	 110.0	 110.0	 110.0	 0.0	 0.0	 1	 -30.0	 30.0;
	15	 90	 0.096	 0.363	 0.048	 79.0	 79.0	 79.0	 0.0	 0.0	 1	 -30.0	 30.0;
	16	 42	 0.002	 0.022	 1.28	 1328.0	 1328.0	 1328.0	 0.0	 0.0	 1	 -30.0	 30.0;
	19	 21	 0.002	 0.018	 0.036	 1620.0	 1620.0	 1620.0	 0.0	 0.0	 1	 -30.0	 30.0;
	19	 87	 0.013	 0.08	 0.151	 362.0	 362.0	 362.0	 0.0	 0.0	 1	 -30.0	 30.0;
	20	 22	 0.016	 0.033	 0.015	 800.0	 800.0	 800.0	 0.0	 0.0	 1	 -30.0	 30.0;
	20	 27	 0.069	 0.186	 0.098	 148.0	 148.0	 148.0	 0.0	 0.0	 1	 -30.0	 30.0;
	21	 24	 0.004	 0.034	 0.28	 857.0	 857.0	 857.0	 0.0	 0.0	 1	 -30.0	 30.0;
	22	 23	 0.052	 0.111	 0.05	 240.0	 240.0	 240.0	 0.0	 0.0	 1	 -30.0	 30.0;
	23	 25	 0.019	 0.039	 0.018	 677.0	 677.0	 677.0	 0.0	 0.0	 1	 -30.0	 30.0;
	24	 319	 0.007	 0.068	 0.134	 430.0	 430.0	 430.0	 0.0	 0.0	 1	 -30.0	 30.0;
	25	 26	 0.036	 0.071	 0.034	 369.0	 369.0	 369.0	 0.0	 0.0	 1	 -30.0	 30.0;
	26	 27	 0.045	 0.12	 0.065	 229.0	 229.0	 229.0	 0.0	 0.0	 1	 -30.0	 30.0;
	26	 320	 0.043	 0.13	 0.014	 215.0	 215.0	 215.0	 0.0	 0.0	 1	 -30.0	 30.0;
	33	 34	 0.0	 0.063	 0.0	 466.0	 466.0	 466.0	 0.0	 0.0	 1	 -30.0	 30.0;
	33	 38	 0.0025	 0.012	 0.013	 2393.0	 2393.0	 2393.0	 0.0	 0.0	 1	 -30.0	 30.0;
	33	 40	 0.006	 0.029	 0.02	 991.0	 991.0	 991.0	 0.0	 0.0	 1	 -30.0	 30.0;
	33	 41	 0.007	 0.043	 0.026	 674.0	 674.0	 674.0	 0.0	 0.0	 1	 -30.0	 30.0;
	34	 42	 0.001	 0.008	 0.042	 3639.0	 3639.0	 3639.0	 0.0	 0.0	 1	 -30.0	 30.0;
	35	 72	 0.012	 0.06	 0.008	 480.0	 480.0	 480.0	 0.0	 0.0	 1	 -30.0	 30.0;
	35	 76	 0.006	 0.014	 0.002	 1926.0	 1926.0	 1926.0	 0.0	 0.0	 1	 -30.0	 30.0;
	35	 77	 0.01	 0.029	 0.003	 957.0	 957.0	 957.0	 0.0	 0.0	 1	 -30.0	 30.0;
	36	 88	 0.004	 0.027	 0.043	 1075.0	 1075.0	 1075.0	 0.0	 0.0	 1	 -30.0	 30.0;
	37	 38	 0.008	 0.047	 0.008	 616.0	 616.0	 616.0	 0.0	 0.0	 1	 -30.0	 30.0;
	37	 40	 0.022	 0.064	 0.007	 434.0	 434.0	 434.0	 0.0	 0.0	 1	 -30.0	 30.0;
	37	 41	 0.01	 0.036	 0.02	 786.0	 786.0	 786.0	 0.0	 0.0	 1	 -30.0	 30.0;
	37	 49	 0.017	 0.081	 0.048	 355.0	 355.0	 355.0	 0.0	 0.0	 1	 -30.0	 30.0;
	37	 89	 0.102	 0.254	 0.033	 108.0	 108.0	 108.0	 0.0	 0.0	 1	 -30.0	 30.0;
	37	 90	 0.047	 0.127	 0.016	 217.0	 217.0	 217.0	 0.0	 0.0	 1	 -30.0	 30.0;
	38	 41	 0.008	 0.037	 0.02	 775.0	 775.0	 775.0	 0.0	 0.0	 1	 -30.0	 30.0;
	38	 43	 0.032	 0.087	 0.04	 317.0	 317.0	 317.0	 0.0	 0.0	 1	 -30.0	 30.0;
	39	 42	 0.0006	 0.0064	 0.404	 4564.0	 4564.0	 4564.0	 0.0	 0.0	 1	 -30.0	 30.0;
	40	 48	 0.026	 0.154	 0.022	 188.0	 188.0	 188.0	 0.0	 0.0	 1	 -30.0	 30.0;
	41	 42	 0.0	 0.029	 0.0	 1012.0	 1012.0	 1012.0	 0.0	 0.0	 1	 -30.0	 30.0;
	41	 49	 0.065	 0.191	 0.02	 146.0	 146.0	 146.0	 0.0	 0.0	 1	 -30.0	 30.0;
	41	 51	 0.031	 0.089	 0.036	 312.0	 312.0	 312.0	 0.0	 0.0	 1	 -30.0	 30.0;
	42	 46	 0.002	 0.014	 0.806	 2075.0	 2075.0	 2075.0	 0.0	 0.0	 1	 -30.0	 30.0;
	43	 44	 0.026	 0.072	 0.035	 384.0	 384.0	 384.0	 0.0	 0.0	 1	 -30.0	 30.0;
	43	 48	 0.095	 0.262	 0.032	 106.0	 106.0	 106.0	 0.0	 0.0	 1	 -30.0	 30.0;
	43	 53	 0.013	 0.039	 0.016	 714.0	 714.0	 714.0	 0.0	 0.0	 1	 -30.0	 30.0;
	44	 47	 0.027	 0.084	 0.039	 333.0	 333.0	 333.0	 0.0	 0.0	 1	 -30.0	 30.0;
	44	 54	 0.028	 0.084	 0.037	 332.0	 332.0	 332.0	 0.0	 0.0	 1	 -30.0	 30.0;
	45	 60	 0.007	 0.041	 0.312	 706.0	 706.0	 706.0	 0.0	 0.0	 1	 -30.0	 30.0;
	45	 74	 0.009	 0.054	 0.411	 536.0	 536.0	 536.0	 0.0	 0.0	 1	 -30.0	 30.0;
	46	 81	 0.005	 0.042	 0.69	 694.0	 694.0	 694.0	 0.0	 0.0	 1	 -30.0	 30.0;
	47	 73	 0.052	 0.145	 0.073	 191.0	 191.0	 191.0	 0.0	 0.0	 1	 -30.0	 30.0;
	47	 113	 0.043	 0.118	 0.013	 234.0	 234.0	 234.0	 0.0	 0.0	 1	 -30.0	 30.0;
	48	 107	 0.025	 0.062	 0.007	 439.0	 439.0	 439.0	 0.0	 0.0	 1	 -30.0	 30.0;
	49	 51	 0.031	 0.094	 0.043	 297.0	 297.0	 297.0	 0.0	 0.0	 1	 -30.0	 30.0;
	51	 52	 0.037	 0.109	 0.049	 255.0	 255.0	 255.0	 0.0	 0.0	 1	 -30.0	 30.0;
	52	 55	 0.027	 0.08	 0.036	 348.0	 348.0	 348.0	 0.0	 0.0	 1	 -30.0	 30.0;
	53	 54	 0.025	 0.073	 0.035	 381.0	 381.0	 381.0	 0.0	 0.0	 1	 -30.0	 30.0;
	54	 55	 0.035	 0.103	 0.047	 270.0	 270.0	 270.0	 0.0	 0.0	 1	 -30.0	 30.0;
	55	 57	 0.065	 0.169	 0.082	 162.0	 162.0	 162.0	 0.0	 0.0	 1	 -30.0	 30.0;
	57	 58	 0.046	 0.08	 0.036	 318.0	 318.0	 318.0	 0.0	 0.0	 1	 -30.0	 30.0;
	57	 63	 0.159	 0.537	 0.071	 53.0	 53.0	 53.0	 0.0	 0.0	 1	 -30.0	 30.0;
	58	 59	 0.009	 0.026	 0.005	 1067.0	 1067.0	 1067.0	 0.0	 0.0	 1	 -30.0	 30.0;
	59	 61	 0.002	 0.013	 0.015	 2231.0	 2231.0	 2231.0	 0.0	 0.0	 1	 -30.0	 30.0;
	60	 62	 0.009	 0.065	 0.485	 447.0	 447.0	 447.0	 0.0	 0.0	 1	 -30.0	 30.0;
	62	 64	 0.016	 0.105	 0.203	 277.0	 277.0	 277.0	 0.0	 0.0	 1	 -30.0	 30.0;
	62	 144	 0.001	 0.007	 0.013	 4149.0	 4149.0	 4149.0	 0.0	 0.0	 1	 -30.0	 30.0;
	63	 526	 0.0265	 0.172	 0.026	 169.0	 169.0	 169.0	 0.0	 0.0	 1	 -30.0	 30.0;
	69	 211	 0.051	 0.232	 0.028	 124.0	 124.0	 124.0	 0.0	 0.0	 1	 -30.0	 30.0;
	69	 79	 0.051	 0.157	 0.023	 178.0	 178.0	 178.0	 0.0	 0.0	 1	 -30.0	 30.0;
	70	 71	 0.032	 0.1	 0.062	 280.0	 280.0	 280.0	 0.0	 0.0	 1	 -30.0	 30.0;
	70	 528	 0.02	 0.1234	 0.028	 235.0	 235.0	 235.0	 0.0	 0.0	 1	 -30.0	 30.0;
	71	 72	 0.036	 0.131	 0.068	 216.0	 216.0	 216.0	 0.0	 0.0	 1	 -30.0	 30.0;
	71	 73	 0.034	 0.099	 0.047	 281.0	 281.0	 281.0	 0.0	 0.0	 1	 -30.0	 30.0;
	72	 77	 0.018	 0.087	 0.011	 331.0	 331.0	 331.0	 0.0	 0.0	 1	 -30.0	 30.0;
	72	 531	 0.0256	 0.193	 0.0	 151.0	 151.0	 151.0	 0.0	 0.0	 1	 -30.0	 30.0;
	73	 76	 0.021	 0.057	 0.03	 483.0	 483.0	 483.0	 0.0	 0.0	 1	 -30.0	 30.0;
	73	 79	 0.018	 0.052	 0.018	 534.0	 534.0	 534.0	 0.0	 0.0	 1	 -30.0	 30.0;
	74	 88	 0.004	 0.027	 0.05	 1075.0	 1075.0	 1075.0	 0.0	 0.0	 1	 -30.0	 30.0;
	74	 562	 0.0286	 0.2013	 0.379	 145.0	 145.0	 145.0	 0.0	 0.0	 1	 -30.0	 30.0;
	76	 77	 0.016	 0.043	 0.004	 640.0	 640.0	 640.0	 0.0	 0.0	 1	 -30.0	 30.0;
	77	 78	 0.001	 0.006	 0.007	 4823.0	 4823.0	 4823.0	 0.0	 0.0	 1	 -30.0	 30.0;
	77	 80	 0.014	 0.07	 0.038	 411.0	 411.0	 411.0	 0.0	 0.0	 1	 -30.0	 30.0;
	77	 552	 0.0891	 0.2676	 0.029	 104.0	 104.0	 104.0	 0.0	 0.0	 1	 -30.0	 30.0;
	77	 609	 0.0782	 0.2127	 0.022	 130.0	 130.0	 130.0	 0.0	 0.0	 1	 -30.0	 30.0;
	78	 79	 0.006	 0.022	 0.011	 1287.0	 1287.0	 1287.0	 0.0	 0.0	 1	 -30.0	 30.0;
	78	 84	 0.0	 0.036	 0.0	 815.0	 815.0	 815.0	 0.0	 0.0	 1	 -30.0	 30.0;
	79	 211	 0.099	 0.375	 0.051	 76.0	 76.0	 76.0	 0.0	 0.0	 1	 -30.0	 30.0;
	80	 211	 0.022	 0.107	 0.058	 269.0	 269.0	 269.0	 0.0	 0.0	 1	 -30.0	 30.0;
	81	 194	 0.0035	 0.033	 0.53	 884.0	 884.0	 884.0	 0.0	 0.0	 1	 -30.0	 30.0;
	81	 195	 0.0035	 0.033	 0.53	 884.0	 884.0	 884.0	 0.0	 0.0	 1	 -30.0	 30.0;
	85	 86	 0.008	 0.064	 0.128	 455.0	 455.0	 455.0	 0.0	 0.0	 1	 -30.0	 30.0;
	86	 87	 0.012	 0.093	 0.183	 313.0	 313.0	 313.0	 0.0	 0.0	 1	 -30.0	 30.0;
	86	 323	 0.006	 0.048	 0.092	 607.0	 607.0	 607.0	 0.0	 0.0	 1	 -30.0	 30.0;
	89	 91	 0.047	 0.119	 0.014	 230.0	 230.0	 230.0	 0.0	 0.0	 1	 -30.0	 30.0;
	90	 92	 0.032	 0.174	 0.024	 166.0	 166.0	 166.0	 0.0	 0.0	 1	 -30.0	 30.0;
	91	 94	 0.1	 0.253	 0.031	 108.0	 108.0	 108.0	 0.0	 0.0	 1	 -30.0	 30.0;
	91	 97	 0.022	 0.077	 0.039	 367.0	 367.0	 367.0	 0.0	 0.0	 1	 -30.0	 30.0;
	92	 103	 0.019	 0.144	 0.017	 202.0	 202.0	 202.0	 0.0	 0.0	 1	 -30.0	 30.0;
	92	 105	 0.017	 0.092	 0.012	 314.0	 314.0	 314.0	 0.0	 0.0	 1	 -30.0	 30.0;
	94	 97	 0.278	 0.427	 0.043	 58.0	 58.0	 58.0	 0.0	 0.0	 1	 -30.0	 30.0;
	97	 100	 0.022	 0.053	 0.007	 512.0	 512.0	 512.0	 0.0	 0.0	 1	 -30.0	 30.0;
	97	 102	 0.038	 0.092	 0.012	 295.0	 295.0	 295.0	 0.0	 0.0	 1	 -30.0	 30.0;
	97	 103	 0.048	 0.122	 0.015	 224.0	 224.0	 224.0	 0.0	 0.0	 1	 -30.0	 30.0;
	98	 100	 0.024	 0.064	 0.007	 430.0	 430.0	 430.0	 0.0	 0.0	 1	 -30.0	 30.0;
	98	 102	 0.034	 0.121	 0.015	 234.0	 234.0	 234.0	 0.0	 0.0	 1	 -30.0	 30.0;
	99	 107	 0.053	 0.135	 0.017	 203.0	 203.0	 203.0	 0.0	 0.0	 1	 -30.0	 30.0;
	99	 108	 0.002	 0.004	 0.002	 6559.0	 6559.0	 6559.0	 0.0	 0.0	 1	 -30.0	 30.0;
	99	 109	 0.045	 0.354	 0.044	 83.0	 83.0	 83.0	 0.0	 0.0	 1	 -30.0	 30.0;
	99	 110	 0.05	 0.174	 0.022	 163.0	 163.0	 163.0	 0.0	 0.0	 1	 -30.0	 30.0;
	100	 102	 0.016	 0.038	 0.004	 712.0	 712.0	 712.0	 0.0	 0.0	 1	 -30.0	 30.0;
	102	 104	 0.043	 0.064	 0.027	 381.0	 381.0	 381.0	 0.0	 0.0	 1	 -30.0	 30.0;
	103	 105	 0.019	 0.062	 0.008	 453.0	 453.0	 453.0	 0.0	 0.0	 1	 -30.0	 30.0;
	104	 108	 0.076	 0.13	 0.044	 195.0	 195.0	 195.0	 0.0	 0.0	 1	 -30.0	 30.0;
	104	 322	 0.044	 0.124	 0.015	 223.0	 223.0	 223.0	 0.0	 0.0	 1	 -30.0	 30.0;
	105	 107	 0.012	 0.088	 0.011	 331.0	 331.0	 331.0	 0.0	 0.0	 1	 -30.0	 30.0;
	105	 110	 0.157	 0.4	 0.047	 69.0	 69.0	 69.0	 0.0	 0.0	 1	 -30.0	 30.0;
	108	 324	 0.074	 0.208	 0.026	 133.0	 133.0	 133.0	 0.0	 0.0	 1	 -30.0	 30.0;
	109	 110	 0.07	 0.184	 0.021	 149.0	 149.0	 149.0	 0.0	 0.0	 1	 -30.0	 30.0;
	109	 113	 0.1	 0.274	 0.031	 101.0	 101.0	 101.0	 0.0	 0.0	 1	 -30.0	 30.0;
	109	 114	 0.109	 0.393	 0.036	 72.0	 72.0	 72.0	 0.0	 0.0	 1	 -30.0	 30.0;
	110	 112	 0.142	 0.404	 0.05	 69.0	 69.0	 69.0	 0.0	 0.0	 1	 -30.0	 30.0;
	112	 114	 0.017	 0.042	 0.006	 648.0	 648.0	 648.0	 0.0	 0.0	 1	 -30.0	 30.0;
	115	 122	 0.0036	 0.0199	 0.004	 1451.0	 1451.0	 1451.0	 0.0	 0.0	 1	 -30.0	 30.0;
	116	 120	 0.002	 0.1049	 0.001	 280.0	 280.0	 280.0	 0.0	 0.0	 1	 -30.0	 30.0;
	117	 118	 0.0001	 0.0018	 0.017	 9900.0	 16271.0	 16271.0	 0.0	 0.0	 1	 -30.0	 30.0;
	118	 119	 0.0	 0.0271	 0.0	 1083.0	 1083.0	 1083.0	 0.0	 0.0	 1	 -30.0	 30.0;
	118	 1201	 0.0	 0.6163	 0.0	 48.0	 48.0	 48.0	 0.0	 0.0	 1	 -30.0	 30.0;
	1201	 120	 0.0	 -0.3697	 0.0	 80.0	 80.0	 80.0	 0.0	 0.0	 1	 -30.0	 30.0;
	118	 121	 0.0022	 0.2915	 0.0	 101.0	 101.0	 101.0	 0.0	 0.0	 1	 -30.0	 30.0;
	119	 120	 0.0	 0.0339	 0.0	 866.0	 866.0	 866.0	 0.0	 0.0	 1	 -30.0	 30.0;
	119	 121	 0.0	 0.0582	 0.0	 504.0	 504.0	 504.0	 0.0	 0.0	 1	 -30.0	 30.0;
	122	 123	 0.0808	 0.2344	 0.029	 119.0	 119.0	 119.0	 0.0	 0.0	 1	 -30.0	 30.0;
	122	 125	 0.0965	 0.3669	 0.054	 78.0	 78.0	 78.0	 0.0	 0.0	 1	 -30.0	 30.0;
	123	 124	 0.036	 0.1076	 0.117	 259.0	 259.0	 259.0	 0.0	 0.0	 1	 -30.0	 30.0;
	123	 125	 0.0476	 0.1414	 0.149	 197.0	 197.0	 197.0	 0.0	 0.0	 1	 -30.0	 30.0;
	125	 126	 0.0006	 0.0197	 0.0	 1489.0	 1489.0	 1489.0	 0.0	 0.0	 1	 -30.0	 30.0;
	126	 127	 0.0059	 0.0405	 0.25	 717.0	 717.0	 717.0	 0.0	 0.0	 1	 -30.0	 30.0;
	126	 129	 0.0115	 0.1106	 0.185	 264.0	 264.0	 264.0	 0.0	 0.0	 1	 -30.0	 30.0;
	126	 132	 0.0198	 0.1688	 0.321	 173.0	 173.0	 173.0	 0.0	 0.0	 1	 -30.0	 30.0;
	126	 157	 0.005	 0.05	 0.33	 584.0	 584.0	 584.0	 0.0	 0.0	 1	 -30.0	 30.0;
	126	 158	 0.0077	 0.0538	 0.335	 540.0	 540.0	 540.0	 0.0	 0.0	 1	 -30.0	 30.0;
	126	 169	 0.0165	 0.1157	 0.171	 251.0	 251.0	 251.0	 0.0	 0.0	 1	 -30.0	 30.0;
	127	 128	 0.0059	 0.0577	 0.095	 506.0	 506.0	 506.0	 0.0	 0.0	 1	 -30.0	 30.0;
	127	 134	 0.0049	 0.0336	 0.208	 864.0	 864.0	 864.0	 0.0	 0.0	 1	 -30.0	 30.0;
	127	 168	 0.0059	 0.0577	 0.095	 506.0	 506.0	 506.0	 0.0	 0.0	 1	 -30.0	 30.0;
	128	 130	 0.0078	 0.0773	 0.126	 378.0	 378.0	 378.0	 0.0	 0.0	 1	 -30.0	 30.0;
	128	 133	 0.0026	 0.0193	 0.03	 1507.0	 1507.0	 1507.0	 0.0	 0.0	 1	 -30.0	 30.0;
	129	 130	 0.0076	 0.0752	 0.122	 389.0	 389.0	 389.0	 0.0	 0.0	 1	 -30.0	 30.0;
	129	 133	 0.0021	 0.0186	 0.03	 1568.0	 1568.0	 1568.0	 0.0	 0.0	 1	 -30.0	 30.0;
...
];

% INFO    : === Translation Options ===
% INFO    : Load Model:                  from file ./nesta_case300_ieee.m.api.sol
% INFO    : Gen Active Capacity Model:   stat
% INFO    : Gen Reactive Capacity Model: al50ag
% INFO    : Gen Active Cost Model:       stat
% INFO    : 
% INFO    : === Load Replacement Notes ===
% INFO    : Bus 1	: Pd=90.0, Qd=49.0 -> Pd=101.77, Qd=49.00
% INFO    : Bus 2	: Pd=56.0, Qd=15.0 -> Pd=63.32, Qd=15.00
% INFO    : Bus 3	: Pd=20.0, Qd=0.0 -> Pd=20.00, Qd=0.00
% INFO    : Bus 4	: Pd=0.0, Qd=0.0 -> Pd=0.00, Qd=0.00
% INFO    : Bus 5	: Pd=353.0, Qd=130.0 -> Pd=399.15, Qd=130.00
% INFO    : Bus 6	: Pd=120.0, Qd=41.0 -> Pd=135.69, Qd=41.00
% INFO    : Bus 7	: Pd=0.0, Qd=0.0 -> Pd=0.00, Qd=0.00
% INFO    : Bus 8	: Pd=63.0, Qd=14.0 -> Pd=71.24, Qd=14.00
% INFO    : Bus 9	: Pd=96.0, Qd=43.0 -> Pd=108.55, Qd=43.00
% INFO    : Bus 10	: Pd=153.0, Qd=33.0 -> Pd=173.00, Qd=33.00
% INFO    : Bus 11	: Pd=83.0, Qd=21.0 -> Pd=93.85, Qd=21.00
% INFO    : Bus 12	: Pd=0.0, Qd=0.0 -> Pd=0.00, Qd=0.00
% INFO    : Bus 13	: Pd=58.0, Qd=10.0 -> Pd=65.58, Qd=10.00
% INFO    : Bus 14	: Pd=160.0, Qd=60.0 -> Pd=180.92, Qd=60.00
% INFO    : Bus 15	: Pd=126.7, Qd=23.0 -> Pd=143.26, Qd=23.00
% INFO    : Bus 16	: Pd=0.0, Qd=0.0 -> Pd=0.00, Qd=0.00
% INFO    : Bus 17	: Pd=561.0, Qd=220.0 -> Pd=634.34, Qd=220.00
% INFO    : Bus 19	: Pd=0.0, Qd=0.0 -> Pd=0.00, Qd=0.00
% INFO    : Bus 20	: Pd=605.0, Qd=120.0 -> Pd=684.09, Qd=120.00
% INFO    : Bus 21	: Pd=77.0, Qd=1.0 -> Pd=87.07, Qd=1.00
% INFO    : Bus 22	: Pd=81.0, Qd=23.0 -> Pd=91.59, Qd=23.00
% INFO    : Bus 23	: Pd=21.0, Qd=7.0 -> Pd=23.75, Qd=7.00
% INFO    : Bus 24	: Pd=0.0, Qd=0.0 -> Pd=0.00, Qd=0.00
% INFO    : Bus 25	: Pd=45.0, Qd=12.0 -> Pd=50.88, Qd=12.00
% INFO    : Bus 26	: Pd=28.0, Qd=9.0 -> Pd=31.66, Qd=9.00
% INFO    : Bus 27	: Pd=69.0, Qd=13.0 -> Pd=78.02, Qd=13.00
% INFO    : Bus 33	: Pd=55.0, Qd=6.0 -> Pd=62.19, Qd=6.00
% INFO    : Bus 34	: Pd=0.0, Qd=0.0 -> Pd=0.00, Qd=0.00
% INFO    : Bus 35	: Pd=0.0, Qd=0.0 -> Pd=0.00, Qd=0.00
% INFO    : Bus 36	: Pd=0.0, Qd=0.0 -> Pd=0.00, Qd=0.00
% INFO    : Bus 37	: Pd=85.0, Qd=32.0 -> Pd=96.11, Qd=32.00
% INFO    : Bus 38	: Pd=155.0, Qd=18.0 -> Pd=175.26, Qd=18.00
% INFO    : Bus 39	: Pd=0.0, Qd=0.0 -> Pd=0.00, Qd=0.00
% INFO    : Bus 40	: Pd=46.0, Qd=-21.0 -> Pd=46.00, Qd=-21.00
% INFO    : Bus 41	: Pd=86.0, Qd=0.0 -> Pd=86.00, Qd=0.00
% INFO    : Bus 42	: Pd=0.0, Qd=0.0 -> Pd=0.00, Qd=0.00
% INFO    : Bus 43	: Pd=39.0, Qd=9.0 -> Pd=44.10, Qd=9.00
% INFO    : Bus 44	: Pd=195.0, Qd=29.0 -> Pd=220.49, Qd=29.00
% INFO    : Bus 45	: Pd=0.0, Qd=0.0 -> Pd=0.00, Qd=0.00
% INFO    : Bus 46	: Pd=0.0, Qd=0.0 -> Pd=0.00, Qd=0.00
% INFO    : Bus 47	: Pd=58.0, Qd=11.8 -> Pd=65.58, Qd=11.80
% INFO    : Bus 48	: Pd=41.0, Qd=19.0 -> Pd=46.36, Qd=19.00
% INFO    : Bus 49	: Pd=92.0, Qd=26.0 -> Pd=104.03, Qd=26.00
% INFO    : Bus 51	: Pd=-5.0, Qd=5.0 -> Pd=-5.00, Qd=5.00
% INFO    : Bus 52	: Pd=61.0, Qd=28.0 -> Pd=68.97, Qd=28.00
% INFO    : Bus 53	: Pd=69.0, Qd=3.0 -> Pd=78.02, Qd=3.00
% INFO    : Bus 54	: Pd=10.0, Qd=1.0 -> Pd=11.31, Qd=1.00
% INFO    : Bus 55	: Pd=22.0, Qd=10.0 -> Pd=24.88, Qd=10.00
% INFO    : Bus 57	: Pd=98.0, Qd=20.0 -> Pd=110.81, Qd=20.00
% INFO    : Bus 58	: Pd=14.0, Qd=1.0 -> Pd=15.83, Qd=1.00
% INFO    : Bus 59	: Pd=218.0, Qd=106.0 -> Pd=246.50, Qd=106.00
% INFO    : Bus 60	: Pd=0.0, Qd=0.0 -> Pd=0.00, Qd=0.00
% INFO    : Bus 61	: Pd=227.0, Qd=110.0 -> Pd=256.68, Qd=110.00
% INFO    : Bus 62	: Pd=0.0, Qd=0.0 -> Pd=0.00, Qd=0.00
% INFO    : Bus 63	: Pd=70.0, Qd=30.0 -> Pd=79.15, Qd=30.00
% INFO    : Bus 64	: Pd=0.0, Qd=0.0 -> Pd=0.00, Qd=0.00
% INFO    : Bus 69	: Pd=0.0, Qd=0.0 -> Pd=0.00, Qd=0.00
% INFO    : Bus 70	: Pd=56.0, Qd=20.0 -> Pd=63.32, Qd=20.00
% INFO    : Bus 71	: Pd=116.0, Qd=38.0 -> Pd=131.16, Qd=38.00
% INFO    : Bus 72	: Pd=57.0, Qd=19.0 -> Pd=64.45, Qd=19.00
% INFO    : Bus 73	: Pd=224.0, Qd=71.0 -> Pd=253.28, Qd=71.00
% INFO    : Bus 74	: Pd=0.0, Qd=0.0 -> Pd=0.00, Qd=0.00
% INFO    : Bus 76	: Pd=208.0, Qd=107.0 -> Pd=235.19, Qd=107.00
% INFO    : Bus 77	: Pd=74.0, Qd=28.0 -> Pd=83.67, Qd=28.00
% INFO    : Bus 78	: Pd=0.0, Qd=0.0 -> Pd=0.00, Qd=0.00
% INFO    : Bus 79	: Pd=48.0, Qd=14.0 -> Pd=54.27, Qd=14.00
% INFO    : Bus 80	: Pd=28.0, Qd=7.0 -> Pd=31.66, Qd=7.00
% INFO    : Bus 81	: Pd=0.0, Qd=0.0 -> Pd=0.00, Qd=0.00
% INFO    : Bus 84	: Pd=37.0, Qd=13.0 -> Pd=41.84, Qd=13.00
% INFO    : Bus 85	: Pd=0.0, Qd=0.0 -> Pd=0.00, Qd=0.00
% INFO    : Bus 86	: Pd=0.0, Qd=0.0 -> Pd=0.00, Qd=0.00
% INFO    : Bus 87	: Pd=0.0, Qd=0.0 -> Pd=0.00, Qd=0.00
% INFO    : Bus 88	: Pd=0.0, Qd=0.0 -> Pd=0.00, Qd=0.00
% INFO    : Bus 89	: Pd=44.2, Qd=0.0 -> Pd=44.20, Qd=0.00
% INFO    : Bus 90	: Pd=66.0, Qd=0.0 -> Pd=66.00, Qd=0.00
% INFO    : Bus 91	: Pd=17.4, Qd=0.0 -> Pd=17.40, Qd=0.00
% INFO    : Bus 92	: Pd=15.8, Qd=0.0 -> Pd=15.80, Qd=0.00
% INFO    : Bus 94	: Pd=60.3, Qd=0.0 -> Pd=60.30, Qd=0.00
% INFO    : Bus 97	: Pd=39.9, Qd=0.0 -> Pd=39.90, Qd=0.00
% INFO    : Bus 98	: Pd=66.7, Qd=0.0 -> Pd=66.70, Qd=0.00
% INFO    : Bus 99	: Pd=83.5, Qd=0.0 -> Pd=83.50, Qd=0.00
% INFO    : Bus 100	: Pd=0.0, Qd=0.0 -> Pd=0.00, Qd=0.00
% INFO    : Bus 102	: Pd=77.8, Qd=0.0 -> Pd=77.80, Qd=0.00
% INFO    : Bus 103	: Pd=32.0, Qd=0.0 -> Pd=32.00, Qd=0.00
% INFO    : Bus 104	: Pd=8.6, Qd=0.0 -> Pd=8.60, Qd=0.00
% INFO    : Bus 105	: Pd=49.6, Qd=0.0 -> Pd=49.60, Qd=0.00
% INFO    : Bus 107	: Pd=4.6, Qd=0.0 -> Pd=4.60, Qd=0.00
% INFO    : Bus 108	: Pd=112.1, Qd=0.0 -> Pd=112.10, Qd=0.00
% INFO    : Bus 109	: Pd=30.7, Qd=0.0 -> Pd=30.70, Qd=0.00
% INFO    : Bus 110	: Pd=63.0, Qd=0.0 -> Pd=63.00, Qd=0.00
% INFO    : Bus 112	: Pd=19.6, Qd=0.0 -> Pd=19.60, Qd=0.00
% INFO    : Bus 113	: Pd=26.2, Qd=0.0 -> Pd=26.20, Qd=0.00
% INFO    : Bus 114	: Pd=18.2, Qd=0.0 -> Pd=18.20, Qd=0.00
% INFO    : Bus 115	: Pd=0.0, Qd=0.0 -> Pd=0.00, Qd=0.00
% INFO    : Bus 116	: Pd=0.0, Qd=0.0 -> Pd=0.00, Qd=0.00
% INFO    : Bus 117	: Pd=0.0, Qd=0.0 -> Pd=0.00, Qd=0.00
% INFO    : Bus 118	: Pd=14.1, Qd=650.0 -> Pd=15.94, Qd=650.00
% INFO    : Bus 119	: Pd=0.0, Qd=0.0 -> Pd=0.00, Qd=0.00
% INFO    : Bus 120	: Pd=777.0, Qd=215.0 -> Pd=878.58, Qd=215.00
% INFO    : Bus 121	: Pd=535.0, Qd=55.0 -> Pd=604.94, Qd=55.00
% INFO    : Bus 122	: Pd=229.1, Qd=11.8 -> Pd=259.05, Qd=11.80
% INFO    : Bus 123	: Pd=78.0, Qd=1.4 -> Pd=88.20, Qd=1.40
% INFO    : Bus 124	: Pd=276.4, Qd=59.3 -> Pd=312.53, Qd=59.30
% INFO    : Bus 125	: Pd=514.8, Qd=82.7 -> Pd=582.10, Qd=82.70
% INFO    : Bus 126	: Pd=57.9, Qd=5.1 -> Pd=65.47, Qd=5.10
% INFO    : Bus 127	: Pd=380.8, Qd=37.0 -> Pd=430.58, Qd=37.00
% INFO    : Bus 128	: Pd=0.0, Qd=0.0 -> Pd=0.00, Qd=0.00
% INFO    : Bus 129	: Pd=0.0, Qd=0.0 -> Pd=0.00, Qd=0.00
% INFO    : Bus 130	: Pd=0.0, Qd=0.0 -> Pd=0.00, Qd=0.00
% INFO    : Bus 131	: Pd=0.0, Qd=0.0 -> Pd=0.00, Qd=0.00
% INFO    : Bus 132	: Pd=0.0, Qd=0.0 -> Pd=0.00, Qd=0.00
% INFO    : Bus 133	: Pd=0.0, Qd=0.0 -> Pd=0.00, Qd=0.00
% INFO    : Bus 134	: Pd=0.0, Qd=0.0 -> Pd=0.00, Qd=0.00
% INFO    : Bus 135	: Pd=169.2, Qd=41.6 -> Pd=191.32, Qd=41.60
% INFO    : Bus 136	: Pd=55.2, Qd=18.2 -> Pd=62.42, Qd=18.20
% INFO    : Bus 137	: Pd=273.6, Qd=99.8 -> Pd=309.37, Qd=99.80
% INFO    : Bus 138	: Pd=1019.2, Qd=135.2 -> Pd=1152.44, Qd=135.20
% INFO    : Bus 139	: Pd=595.0, Qd=83.3 -> Pd=672.78, Qd=83.30
% INFO    : Bus 140	: Pd=387.7, Qd=114.7 -> Pd=438.38, Qd=114.70
% INFO    : Bus 141	: Pd=145.0, Qd=58.0 -> Pd=163.96, Qd=58.00
% INFO    : Bus 142	: Pd=56.5, Qd=24.5 -> Pd=63.89, Qd=24.50
% INFO    : Bus 143	: Pd=89.5, Qd=35.5 -> Pd=101.20, Qd=35.50
% INFO    : Bus 144	: Pd=0.0, Qd=0.0 -> Pd=0.00, Qd=0.00
% INFO    : Bus 145	: Pd=24.0, Qd=14.0 -> Pd=27.14, Qd=14.00
% INFO    : Bus 146	: Pd=0.0, Qd=0.0 -> Pd=0.00, Qd=0.00
% INFO    : Bus 147	: Pd=0.0, Qd=0.0 -> Pd=0.00, Qd=0.00
% INFO    : Bus 148	: Pd=63.0, Qd=25.0 -> Pd=71.24, Qd=25.00
% INFO    : Bus 149	: Pd=0.0, Qd=0.0 -> Pd=0.00, Qd=0.00
% INFO    : Bus 150	: Pd=0.0, Qd=0.0 -> Pd=0.00, Qd=0.00
% INFO    : Bus 151	: Pd=0.0, Qd=0.0 -> Pd=0.00, Qd=0.00
% INFO    : Bus 152	: Pd=17.0, Qd=9.0 -> Pd=19.22, Qd=9.00
% INFO    : Bus 153	: Pd=0.0, Qd=0.0 -> Pd=0.00, Qd=0.00
% INFO    : Bus 154	: Pd=70.0, Qd=5.0 -> Pd=79.15, Qd=5.00
% INFO    : Bus 155	: Pd=200.0, Qd=50.0 -> Pd=226.15, Qd=50.00
% INFO    : Bus 156	: Pd=75.0, Qd=50.0 -> Pd=84.80, Qd=50.00
% INFO    : Bus 157	: Pd=123.5, Qd=-24.3 -> Pd=123.50, Qd=-24.30
% INFO    : Bus 158	: Pd=0.0, Qd=0.0 -> Pd=0.00, Qd=0.00
% INFO    : Bus 159	: Pd=33.0, Qd=16.5 -> Pd=37.31, Qd=16.50
% INFO    : Bus 160	: Pd=0.0, Qd=0.0 -> Pd=0.00, Qd=0.00
% INFO    : Bus 161	: Pd=35.0, Qd=15.0 -> Pd=39.58, Qd=15.00
% INFO    : Bus 162	: Pd=85.0, Qd=24.0 -> Pd=96.11, Qd=24.00
% INFO    : Bus 163	: Pd=0.0, Qd=0.4 -> Pd=0.00, Qd=0.40
% INFO    : Bus 164	: Pd=0.0, Qd=0.0 -> Pd=0.00, Qd=0.00
% INFO    : Bus 165	: Pd=0.0, Qd=0.0 -> Pd=0.00, Qd=0.00
% INFO    : Bus 166	: Pd=0.0, Qd=0.0 -> Pd=0.00, Qd=0.00
% INFO    : Bus 167	: Pd=299.9, Qd=95.7 -> Pd=339.11, Qd=95.70
% INFO    : Bus 168	: Pd=0.0, Qd=0.0 -> Pd=0.00, Qd=0.00
% INFO    : Bus 169	: Pd=0.0, Qd=0.0 -> Pd=0.00, Qd=0.00
% INFO    : Bus 170	: Pd=481.8, Qd=205.0 -> Pd=544.78, Qd=205.00
% INFO    : Bus 171	: Pd=763.6, Qd=291.1 -> Pd=863.42, Qd=291.10
% INFO    : Bus 172	: Pd=26.5, Qd=0.0 -> Pd=26.50, Qd=0.00
% INFO    : Bus 173	: Pd=163.5, Qd=43.0 -> Pd=184.87, Qd=43.00
% INFO    : Bus 174	: Pd=0.0, Qd=0.0 -> Pd=0.00, Qd=0.00
% INFO    : Bus 175	: Pd=176.0, Qd=83.0 -> Pd=199.01, Qd=83.00
% INFO    : Bus 176	: Pd=5.0, Qd=4.0 -> Pd=5.65, Qd=4.00
% INFO    : Bus 177	: Pd=28.0, Qd=12.0 -> Pd=31.66, Qd=12.00
% INFO    : Bus 178	: Pd=427.4, Qd=173.6 -> Pd=483.27, Qd=173.60
% INFO    : Bus 179	: Pd=74.0, Qd=29.0 -> Pd=83.67, Qd=29.00
% INFO    : Bus 180	: Pd=69.5, Qd=49.3 -> Pd=78.59, Qd=49.30
% INFO    : Bus 181	: Pd=73.4, Qd=0.0 -> Pd=73.40, Qd=0.00
% INFO    : Bus 182	: Pd=240.7, Qd=89.0 -> Pd=272.17, Qd=89.00
% INFO    : Bus 183	: Pd=40.0, Qd=4.0 -> Pd=45.23, Qd=4.00
% INFO    : Bus 184	: Pd=136.8, Qd=16.6 -> Pd=154.68, Qd=16.60
% INFO    : Bus 185	: Pd=0.0, Qd=0.0 -> Pd=0.00, Qd=0.00
% INFO    : Bus 186	: Pd=59.8, Qd=24.3 -> Pd=67.62, Qd=24.30
% INFO    : Bus 187	: Pd=59.8, Qd=24.3 -> Pd=67.62, Qd=24.30
% INFO    : Bus 188	: Pd=182.6, Qd=43.6 -> Pd=206.47, Qd=43.60
% INFO    : Bus 189	: Pd=7.0, Qd=2.0 -> Pd=7.92, Qd=2.00
% INFO    : Bus 190	: Pd=0.0, Qd=0.0 -> Pd=0.00, Qd=0.00
% INFO    : Bus 191	: Pd=489.0, Qd=53.0 -> Pd=552.93, Qd=53.00
% INFO    : Bus 192	: Pd=800.0, Qd=72.0 -> Pd=904.58, Qd=72.00
% INFO    : Bus 193	: Pd=0.0, Qd=0.0 -> Pd=0.00, Qd=0.00
% INFO    : Bus 194	: Pd=0.0, Qd=0.0 -> Pd=0.00, Qd=0.00
% INFO    : Bus 195	: Pd=0.0, Qd=0.0 -> Pd=0.00, Qd=0.00
% INFO    : Bus 196	: Pd=10.0, Qd=3.0 -> Pd=11.31, Qd=3.00
% INFO    : Bus 197	: Pd=43.0, Qd=14.0 -> Pd=48.62, Qd=14.00
% INFO    : Bus 198	: Pd=64.0, Qd=21.0 -> Pd=72.37, Qd=21.00
% INFO    : Bus 199	: Pd=35.0, Qd=12.0 -> Pd=39.58, Qd=12.00
% INFO    : Bus 200	: Pd=27.0, Qd=12.0 -> Pd=30.53, Qd=12.00
% INFO    : Bus 201	: Pd=41.0, Qd=14.0 -> Pd=46.36, Qd=14.00
% INFO    : Bus 202	: Pd=38.0, Qd=13.0 -> Pd=42.97, Qd=13.00
% INFO    : Bus 203	: Pd=42.0, Qd=14.0 -> Pd=47.49, Qd=14.00
% INFO    : Bus 204	: Pd=72.0, Qd=24.0 -> Pd=81.41, Qd=24.00
% INFO    : Bus 205	: Pd=0.0, Qd=-5.0 -> Pd=0.00, Qd=-5.00
% INFO    : Bus 206	: Pd=12.0, Qd=2.0 -> Pd=13.57, Qd=2.00
% INFO    : Bus 207	: Pd=-21.0, Qd=-14.2 -> Pd=-21.00, Qd=-14.20
% INFO    : Bus 208	: Pd=7.0, Qd=2.0 -> Pd=7.92, Qd=2.00
% INFO    : Bus 209	: Pd=38.0, Qd=13.0 -> Pd=42.97, Qd=13.00
% INFO    : Bus 210	: Pd=0.0, Qd=0.0 -> Pd=0.00, Qd=0.00
% INFO    : Bus 211	: Pd=96.0, Qd=7.0 -> Pd=108.55, Qd=7.00
% INFO    : Bus 212	: Pd=0.0, Qd=0.0 -> Pd=0.00, Qd=0.00
% INFO    : Bus 213	: Pd=0.0, Qd=0.0 -> Pd=0.00, Qd=0.00
% INFO    : Bus 214	: Pd=22.0, Qd=16.0 -> Pd=24.88, Qd=16.00
% INFO    : Bus 215	: Pd=47.0, Qd=26.0 -> Pd=53.14, Qd=26.00
% INFO    : Bus 216	: Pd=176.0, Qd=105.0 -> Pd=199.01, Qd=105.00
% INFO    : Bus 217	: Pd=100.0, Qd=75.0 -> Pd=113.07, Qd=75.00
% INFO    : Bus 218	: Pd=131.0, Qd=96.0 -> Pd=148.13, Qd=96.00
% INFO    : Bus 219	: Pd=0.0, Qd=0.0 -> Pd=0.00, Qd=0.00
...